#       Name:                CT1002167954
#       Creating user name   hitesit
#       Creation time:       Sun Apr 16 22:54:39 2023


#       File generated by GOLD software.
#

@<TRIPOS>MOLECULE
CT1002167954|ligand_prepared|mol2|1|dock3
    29    30     1
SMALL
NO_CHARGES


@<TRIPOS>ATOM
      1 C1         208.1985  53.3537  67.5508 C.3            1 RES1               0.0000
      2 C2         207.5470  52.3122  68.4832 C.ar           1 RES1               0.0000
      3 C3         208.9923  54.2968  68.4501 C.2            1 RES1               0.0000
      4 C4         209.0547  52.5669  66.5646 C.2            1 RES1               0.0000
      5 C5         207.1810  54.1891  66.7394 C.3            1 RES1               0.0000
      6 C6         208.3328  51.4797  69.2745 C.ar           1 RES1               0.0000
      7 C7         206.1639  52.1742  68.5648 C.ar           1 RES1               0.0000
      8 N8         210.3512  54.1826  68.4424 N.am           1 RES1               0.0000
      9 O9         208.4325  55.1015  69.1844 O.2            1 RES1               0.0000
     10 N10        210.4135  52.7371  66.6158 N.am           1 RES1               0.0000
     11 O11        208.5662  51.7885  65.7548 O.2            1 RES1               0.0000
     12 C12        207.8251  55.1549  65.7573 C.3            1 RES1               0.0000
     13 C13        207.7569  50.5451  70.1190 C.ar           1 RES1               0.0000
     14 C14        205.5900  51.2388  69.4099 C.ar           1 RES1               0.0000
     15 C15        211.1026  53.4860  67.5304 C.2            1 RES1               0.0000
     16 C16        206.3853  50.4243  70.1876 C.ar           1 RES1               0.0000
     17 O17        212.3287  53.5464  67.5459 O.2            1 RES1               0.0000
     18 H18        206.5258  53.5061  66.1848 H              1 RES1               0.0000
     19 H19        206.5563  54.7599  67.4375 H              1 RES1               0.0000
     20 H20        209.4140  51.5586  69.2321 H              1 RES1               0.0000
     21 H21        205.5186  52.8035  67.9614 H              1 RES1               0.0000
     22 H22        210.8554  54.6593  69.1833 H              1 RES1               0.0000
     23 H23        210.9620  52.2616  65.9063 H              1 RES1               0.0000
     24 H24        207.0671  55.7157  65.2145 H              1 RES1               0.0000
     25 H25        208.4643  55.8651  66.2777 H              1 RES1               0.0000
     26 H26        208.4341  54.6187  65.0323 H              1 RES1               0.0000
     27 H27        208.3872  49.9056  70.7280 H              1 RES1               0.0000
     28 H28        204.5101  51.1468  69.4602 H              1 RES1               0.0000
     29 H29        205.9343  49.6924  70.8496 H              1 RES1               0.0000
@<TRIPOS>BOND
    1    1    2 1     
    2    1    3 1     
    3    1    4 1     
    4    1    5 1     
    5    2    6 ar    
    6    2    7 ar    
    7    3    8 1     
    8    3    9 2     
    9    4   10 1     
   10    4   11 2     
   11    5   12 1     
   12    5   18 1     
   13    5   19 1     
   14    6   13 ar    
   15    6   20 1     
   16    7   14 ar    
   17    7   21 1     
   18    8   15 1     
   19    8   22 1     
   20   10   15 1     
   21   10   23 1     
   22   12   24 1     
   23   12   25 1     
   24   12   26 1     
   25   13   16 ar    
   26   13   27 1     
   27   14   16 ar    
   28   14   28 1     
   29   15   17 2     
   30   16   29 1     
@<TRIPOS>SUBSTRUCTURE
      1 RES1           1
@<TRIPOS>SET
DONOR_HYDROGENS      STATIC     ATOMS    <user>   **** ""
2 22 23
ATOM$RED        STATIC     ATOMS    COLORGROUP SYSTEM
2 22 23
@<TRIPOS>COMMENT
> <Gold.Version>
2022.3.0

> <Gold.Id.Protein>
unknown|4d1n_clean|pdb

> <Gold.Protein.RotatedTorsions>
[ 9571 9508 9507 9505 ] final  -86.99 input   60.00 | X-H torsion
[ 7907 7874 7873 7870 ] final   74.50 input   60.00 | X-H torsion

> <Gold.Protein.ActiveResidues>
 ASP403  THR404  ILE407  TYR408  ALA410  LYS411  TRP414  GLN425  TRP426  SER427 
 LYS428  LEU429  GLN430  VAL431  PHE432  ASP433  TYR453  SER462  ALA463  ILE464 

> <Gold.Protein.RotatedAtoms>
  205.0477   51.5491   61.7836 H   0  0  0  0  0  0  0  0  0  0  0  0  # atno 7907 bound_to 7874
  207.5577   51.7852   73.6609 H   0  0  0  0  0  0  0  0  0  0  0  0  # atno 9571 bound_to 9508
  208.6368   51.2295   72.5772 LP  0  0  0  0  0  0  0  0  0  0  0  0  # atno 27207 bound_to 9508
  208.8543   52.6896   73.2753 LP  0  0  0  0  0  0  0  0  0  0  0  0  # atno 27208 bound_to 9508
  204.6112   50.1053   61.1737 LP  0  0  0  0  0  0  0  0  0  0  0  0  # atno 27219 bound_to 7874
  204.8401   51.3798   60.1788 LP  0  0  0  0  0  0  0  0  0  0  0  0  # atno 27220 bound_to 7874

> <Gold.Score>
     Fitness  S(hb_ext) S(vdw_ext)  S(hb_int)    S(int)      intcor
     31.56       0.27      22.93       0.00      -0.24      -0.77

> <Gold.Goldscore.Fitness>
31.5629

> <Gold.Goldscore.Internal.Vdw>
-0.6308

> <Gold.Goldscore.Internal.Torsion>
-0.3866

> <Gold.Goldscore.External.Vdw>
22.9321

> <Gold.Goldscore.Internal.HBond>
0.0000

> <Gold.Goldscore.External.HBond>
0.2749

> <Gold.Goldscore.Internal.Correction>
-0.7737

> <Gold.Goldscore.Hbonds>
donor molecule, donor type, donor heavy atom, donor atom, acceptor molecule, acceptor atom, score
      P1  H  8001  8055       L1    11  0.11
      P1  H  8145  8191       L1    17  0.03

> <Gold.Goldscore.Internal.Vdw.Weighted>
-0.6308

> <Gold.Goldscore.Internal.Torsion.Weighted>
-0.3866

> <Gold.Goldscore.External.Vdw.Weighted>
31.5316

> <Gold.Goldscore.Internal.HBond.Weighted>
0.0000

> <Gold.Goldscore.External.HBond.Weighted>
0.2749

> <Gold.Goldscore.Internal.Correction.Weighted>
-0.7737

> <Gold.Rescore>
     Score     S(PLP)   S(hbond)     S(cho)   S(metal)  DE(clash)   DE(tors)     intcor
     36.00     -32.65       1.14       0.00       0.00       0.00       0.04       ----

> <Gold.PLP.Fitness>
35.9957

> <Gold.PLP.PLP>
-32.6502

> <Gold.PLP.part.hbond>
-2.0000

> <Gold.PLP.part.metal>
0.0000

> <Gold.PLP.part.buried>
-0.1482

> <Gold.PLP.part.nonpolar>
-31.8281

> <Gold.PLP.part.repulsive>
0.4801

> <Gold.PLP.ligand.clash>
0.0000

> <Gold.PLP.ligand.torsion>
0.0370

> <Gold.PLP.Chemscore.Hbond>
1.1399

> <Gold.PLP.Chemscore.CHOScore>
0.0000

> <Gold.PLP.Chemscore.Metal>
0.0000

> <Gold.Chemscore.Hbonds>
donor molecule, donor type, donor heavy atom, donor atom, acceptor molecule, acceptor atom, score
      P1  H  8001  8055       L1    11  0.63

> <Gold.PLP.Chemscore.Internal.Correction>
   9.000000E+99

#       Name:                CT1002167954
#       Creating user name   hitesit
#       Creation time:       Sun Apr 16 22:54:39 2023


#       File generated by GOLD software.
#

@<TRIPOS>MOLECULE
CT1002167954|ligand_prepared|mol2|1|dock2
    29    30     1
SMALL
NO_CHARGES


@<TRIPOS>ATOM
      1 C1         206.7329  52.9196  69.5227 C.3            1 RES1               0.0000
      2 C2         205.9546  51.6515  69.9289 C.ar           1 RES1               0.0000
      3 C3         208.1990  52.5089  69.4226 C.2            1 RES1               0.0000
      4 C4         206.1267  53.3882  68.2045 C.2            1 RES1               0.0000
      5 C5         206.6157  54.0777  70.5409 C.3            1 RES1               0.0000
      6 C6         206.3163  50.4060  69.4243 C.ar           1 RES1               0.0000
      7 C7         204.8764  51.7109  70.8079 C.ar           1 RES1               0.0000
      8 N8         208.7378  52.3888  68.1755 N.am           1 RES1               0.0000
      9 O9         208.8613  52.2557  70.4213 O.2            1 RES1               0.0000
     10 N10        206.9148  53.3459  67.0843 N.am           1 RES1               0.0000
     11 O11        204.9684  53.7780  68.1227 O.2            1 RES1               0.0000
     12 C12        207.5342  55.2521  70.2422 C.3            1 RES1               0.0000
     13 C13        205.6270  49.2609  69.7874 C.ar           1 RES1               0.0000
     14 C14        204.1883  50.5645  71.1696 C.ar           1 RES1               0.0000
     15 C15        208.1831  52.8386  67.0043 C.2            1 RES1               0.0000
     16 C16        204.5630  49.3392  70.6605 C.ar           1 RES1               0.0000
     17 O17        208.8082  52.7850  65.9491 O.2            1 RES1               0.0000
     18 H18        205.5784  54.4346  70.5518 H              1 RES1               0.0000
     19 H19        206.8485  53.6930  71.5415 H              1 RES1               0.0000
     20 H20        207.1494  50.3251  68.7341 H              1 RES1               0.0000
     21 H21        204.5633  52.6641  71.2200 H              1 RES1               0.0000
     22 H22        209.6362  51.9214  68.1074 H              1 RES1               0.0000
     23 H23        206.5195  53.7282  66.2311 H              1 RES1               0.0000
     24 H24        207.4122  56.0362  70.9864 H              1 RES1               0.0000
     25 H25        208.5760  54.9382  70.2483 H              1 RES1               0.0000
     26 H26        207.3135  55.6754  69.2645 H              1 RES1               0.0000
     27 H27        205.9250  48.2992  69.3829 H              1 RES1               0.0000
     28 H28        203.3512  50.6309  71.8565 H              1 RES1               0.0000
     29 H29        204.0234  48.4420  70.9451 H              1 RES1               0.0000
@<TRIPOS>BOND
    1    1    2 1     
    2    1    3 1     
    3    1    4 1     
    4    1    5 1     
    5    2    6 ar    
    6    2    7 ar    
    7    3    8 1     
    8    3    9 2     
    9    4   10 1     
   10    4   11 2     
   11    5   12 1     
   12    5   18 1     
   13    5   19 1     
   14    6   13 ar    
   15    6   20 1     
   16    7   14 ar    
   17    7   21 1     
   18    8   15 1     
   19    8   22 1     
   20   10   15 1     
   21   10   23 1     
   22   12   24 1     
   23   12   25 1     
   24   12   26 1     
   25   13   16 ar    
   26   13   27 1     
   27   14   16 ar    
   28   14   28 1     
   29   15   17 2     
   30   16   29 1     
@<TRIPOS>SUBSTRUCTURE
      1 RES1           1
@<TRIPOS>SET
DONOR_HYDROGENS      STATIC     ATOMS    <user>   **** ""
2 22 23
ATOM$RED        STATIC     ATOMS    COLORGROUP SYSTEM
2 22 23
@<TRIPOS>COMMENT
> <Gold.Version>
2022.3.0

> <Gold.Id.Protein>
unknown|4d1n_clean|pdb

> <Gold.Protein.RotatedTorsions>
[ 9571 9508 9507 9505 ] final  176.51 input   60.00 | X-H torsion
[ 7907 7874 7873 7870 ] final   92.80 input   60.00 | X-H torsion

> <Gold.Protein.ActiveResidues>
 ASP403  THR404  ILE407  TYR408  ALA410  LYS411  TRP414  GLN425  TRP426  SER427 
 LYS428  LEU429  GLN430  VAL431  PHE432  ASP433  TYR453  SER462  ALA463  ILE464 

> <Gold.Protein.RotatedAtoms>
  205.0781   51.7513   61.5674 H   0  0  0  0  0  0  0  0  0  0  0  0  # atno 7907 bound_to 7874
  208.3144   51.0817   72.7207 H   0  0  0  0  0  0  0  0  0  0  0  0  # atno 9571 bound_to 9508
  209.0624   52.4962   73.0168 LP  0  0  0  0  0  0  0  0  0  0  0  0  # atno 27207 bound_to 9508
  207.6668   52.1313   73.7823 LP  0  0  0  0  0  0  0  0  0  0  0  0  # atno 27208 bound_to 9508
  204.6599   50.1827   61.4593 LP  0  0  0  0  0  0  0  0  0  0  0  0  # atno 27219 bound_to 7874
  204.7608   51.0987   60.1112 LP  0  0  0  0  0  0  0  0  0  0  0  0  # atno 27220 bound_to 7874

> <Gold.Score>
     Fitness  S(hb_ext) S(vdw_ext)  S(hb_int)    S(int)      intcor
     31.35       0.76      22.52       0.00      -0.37      -0.78

> <Gold.Goldscore.Fitness>
31.3481

> <Gold.Goldscore.Internal.Vdw>
-0.6748

> <Gold.Goldscore.Internal.Torsion>
-0.4749

> <Gold.Goldscore.External.Vdw>
22.5182

> <Gold.Goldscore.Internal.HBond>
0.0000

> <Gold.Goldscore.External.HBond>
0.7571

> <Gold.Goldscore.Internal.Correction>
-0.7782

> <Gold.Goldscore.Hbonds>
donor molecule, donor type, donor heavy atom, donor atom, acceptor molecule, acceptor atom, score
      P1  H  8001  8055       L1    17  0.11
      P1  H  8084  8134       L1     9  0.25
      L1  H     8    22       P1  8004  0.02

> <Gold.Goldscore.Internal.Vdw.Weighted>
-0.6748

> <Gold.Goldscore.Internal.Torsion.Weighted>
-0.4749

> <Gold.Goldscore.External.Vdw.Weighted>
30.9625

> <Gold.Goldscore.Internal.HBond.Weighted>
0.0000

> <Gold.Goldscore.External.HBond.Weighted>
0.7571

> <Gold.Goldscore.Internal.Correction.Weighted>
-0.7782

> <Gold.Rescore>
     Score     S(PLP)   S(hbond)     S(cho)   S(metal)  DE(clash)   DE(tors)     intcor
     33.55     -29.47       2.03       0.00       0.00       0.00       1.01       ----

> <Gold.PLP.Fitness>
33.5524

> <Gold.PLP.PLP>
-29.4733

> <Gold.PLP.part.hbond>
-3.2316

> <Gold.PLP.part.metal>
0.0000

> <Gold.PLP.part.buried>
-0.0692

> <Gold.PLP.part.nonpolar>
-27.6110

> <Gold.PLP.part.repulsive>
0.5549

> <Gold.PLP.ligand.clash>
0.0000

> <Gold.PLP.ligand.torsion>
1.0100

> <Gold.PLP.Chemscore.Hbond>
2.0330

> <Gold.PLP.Chemscore.CHOScore>
0.0000

> <Gold.PLP.Chemscore.Metal>
0.0000

> <Gold.Chemscore.Hbonds>
donor molecule, donor type, donor heavy atom, donor atom, acceptor molecule, acceptor atom, score
      L1  H     8    22       P1  8004  0.37
      P1  H  8001  8055       L1    17  0.04
      P1  H  8084  8134       L1     9  1.00

> <Gold.PLP.Chemscore.Internal.Correction>
   9.000000E+99

#       Name:                CT1002167954
#       Creating user name   hitesit
#       Creation time:       Sun Apr 16 22:54:38 2023


#       File generated by GOLD software.
#

@<TRIPOS>MOLECULE
CT1002167954|ligand_prepared|mol2|1|dock1
    29    30     1
SMALL
NO_CHARGES


@<TRIPOS>ATOM
      1 C1         206.7359  52.8848  69.5596 C.3            1 RES1               0.0000
      2 C2         205.9562  51.6213  69.9773 C.ar           1 RES1               0.0000
      3 C3         208.2071  52.4829  69.5084 C.2            1 RES1               0.0000
      4 C4         206.1615  53.3155  68.2146 C.2            1 RES1               0.0000
      5 C5         206.5837  54.0671  70.5448 C.3            1 RES1               0.0000
      6 C6         206.1583  50.4132  69.3167 C.ar           1 RES1               0.0000
      7 C7         205.0350  51.6476  71.0210 C.ar           1 RES1               0.0000
      8 N8         208.7794  52.3358  68.2794 N.am           1 RES1               0.0000
      9 O9         208.8445  52.2600  70.5303 O.2            1 RES1               0.0000
     10 N10        206.9793  53.2511  67.1169 N.am           1 RES1               0.0000
     11 O11        205.0031  53.6942  68.0925 O.2            1 RES1               0.0000
     12 C12        207.3610  55.3088  70.1371 C.3            1 RES1               0.0000
     13 C13        205.4669  49.2720  69.6880 C.ar           1 RES1               0.0000
     14 C14        204.3445  50.5052  71.3906 C.ar           1 RES1               0.0000
     15 C15        208.2527  52.7517  67.0830 C.2            1 RES1               0.0000
     16 C16        204.5599  49.3171  70.7253 C.ar           1 RES1               0.0000
     17 O17        208.9058  52.6765  66.0462 O.2            1 RES1               0.0000
     18 H18        205.5207  54.3261  70.6240 H              1 RES1               0.0000
     19 H19        206.9255  53.7465  71.5367 H              1 RES1               0.0000
     20 H20        206.8662  50.3590  68.4964 H              1 RES1               0.0000
     21 H21        204.8486  52.5715  71.5579 H              1 RES1               0.0000
     22 H22        209.6826  51.8737  68.2467 H              1 RES1               0.0000
     23 H23        206.6040  53.6088  66.2442 H              1 RES1               0.0000
     24 H24        207.2196  56.1076  70.8621 H              1 RES1               0.0000
     25 H25        208.4256  55.0938  70.0732 H              1 RES1               0.0000
     26 H26        207.0291  55.6699  69.1659 H              1 RES1               0.0000
     27 H27        205.6390  48.3397  69.1603 H              1 RES1               0.0000
     28 H28        203.6312  50.5455  72.2072 H              1 RES1               0.0000
     29 H29        204.0187  48.4228  71.0162 H              1 RES1               0.0000
@<TRIPOS>BOND
    1    1    2 1     
    2    1    3 1     
    3    1    4 1     
    4    1    5 1     
    5    2    6 ar    
    6    2    7 ar    
    7    3    8 1     
    8    3    9 2     
    9    4   10 1     
   10    4   11 2     
   11    5   12 1     
   12    5   18 1     
   13    5   19 1     
   14    6   13 ar    
   15    6   20 1     
   16    7   14 ar    
   17    7   21 1     
   18    8   15 1     
   19    8   22 1     
   20   10   15 1     
   21   10   23 1     
   22   12   24 1     
   23   12   25 1     
   24   12   26 1     
   25   13   16 ar    
   26   13   27 1     
   27   14   16 ar    
   28   14   28 1     
   29   15   17 2     
   30   16   29 1     
@<TRIPOS>SUBSTRUCTURE
      1 RES1           1
@<TRIPOS>SET
DONOR_HYDROGENS      STATIC     ATOMS    <user>   **** ""
2 22 23
ATOM$RED        STATIC     ATOMS    COLORGROUP SYSTEM
2 22 23
@<TRIPOS>COMMENT
> <Gold.Version>
2022.3.0

> <Gold.Id.Protein>
unknown|4d1n_clean|pdb

> <Gold.Protein.RotatedTorsions>
[ 9571 9508 9507 9505 ] final -151.20 input   60.00 | X-H torsion
[ 7907 7874 7873 7870 ] final  150.79 input   60.00 | X-H torsion

> <Gold.Protein.ActiveResidues>
 ASP403  THR404  ILE407  TYR408  ALA410  LYS411  TRP414  GLN425  TRP426  SER427 
 LYS428  LEU429  GLN430  VAL431  PHE432  ASP433  TYR453  SER462  ALA463  ILE464 

> <Gold.Protein.RotatedAtoms>
  205.0129   51.8492   60.6679 H   0  0  0  0  0  0  0  0  0  0  0  0  # atno 7907 bound_to 7874
  207.8923   51.0965   73.0251 H   0  0  0  0  0  0  0  0  0  0  0  0  # atno 9571 bound_to 9508
  209.1510   52.0791   72.7118 LP  0  0  0  0  0  0  0  0  0  0  0  0  # atno 27207 bound_to 9508
  208.0032   52.5334   73.7808 LP  0  0  0  0  0  0  0  0  0  0  0  0  # atno 27208 bound_to 9508
  204.8963   50.8951   61.9806 LP  0  0  0  0  0  0  0  0  0  0  0  0  # atno 27219 bound_to 7874
  204.5901   50.2875   60.4961 LP  0  0  0  0  0  0  0  0  0  0  0  0  # atno 27220 bound_to 7874

> <Gold.Score>
     Fitness  S(hb_ext) S(vdw_ext)  S(hb_int)    S(int)      intcor
     29.89       0.86      21.57       0.00      -0.63      -0.78

> <Gold.Goldscore.Fitness>
29.8894

> <Gold.Goldscore.Internal.Vdw>
-1.0423

> <Gold.Goldscore.Internal.Torsion>
-0.3670

> <Gold.Goldscore.External.Vdw>
21.5744

> <Gold.Goldscore.Internal.HBond>
0.0000

> <Gold.Goldscore.External.HBond>
0.8557

> <Gold.Goldscore.Internal.Correction>
-0.7782

> <Gold.Goldscore.Hbonds>
donor molecule, donor type, donor heavy atom, donor atom, acceptor molecule, acceptor atom, score
      P1  H  8001  8055       L1    17  0.11
      P1  H  8084  8134       L1     9  0.31
      L1  H     8    22       P1  8004  0.01

> <Gold.Goldscore.Internal.Vdw.Weighted>
-1.0423

> <Gold.Goldscore.Internal.Torsion.Weighted>
-0.3670

> <Gold.Goldscore.External.Vdw.Weighted>
29.6648

> <Gold.Goldscore.Internal.HBond.Weighted>
0.0000

> <Gold.Goldscore.External.HBond.Weighted>
0.8557

> <Gold.Goldscore.Internal.Correction.Weighted>
-0.7782

> <Gold.Rescore>
     Score     S(PLP)   S(hbond)     S(cho)   S(metal)  DE(clash)   DE(tors)     intcor
     32.25     -26.84       1.87       0.00       0.00       0.00       0.10       ----

> <Gold.PLP.Fitness>
32.2530

> <Gold.PLP.PLP>
-26.8398

> <Gold.PLP.part.hbond>
-3.2270

> <Gold.PLP.part.metal>
0.0000

> <Gold.PLP.part.buried>
-1.7751

> <Gold.PLP.part.nonpolar>
-22.5117

> <Gold.PLP.part.repulsive>
1.0039

> <Gold.PLP.ligand.clash>
0.0000

> <Gold.PLP.ligand.torsion>
0.1018

> <Gold.PLP.Chemscore.Hbond>
1.8723

> <Gold.PLP.Chemscore.CHOScore>
0.0000

> <Gold.PLP.Chemscore.Metal>
0.0000

> <Gold.Chemscore.Hbonds>
donor molecule, donor type, donor heavy atom, donor atom, acceptor molecule, acceptor atom, score
      L1  H     8    22       P1  8004  0.24
      P1  H  8001  8055       L1    17  0.13
      P1  H  8084  8134       L1     9  1.00

> <Gold.PLP.Chemscore.Internal.Correction>
   9.000000E+99

#       Name:                CT1002167954
#       Creating user name   hitesit
#       Creation time:       Sun Apr 16 22:54:40 2023


#       File generated by GOLD software.
#

@<TRIPOS>MOLECULE
CT1002167954|ligand_prepared|mol2|1|dock4
    29    30     1
SMALL
NO_CHARGES


@<TRIPOS>ATOM
      1 C1         209.5983  54.2687  68.0473 C.3            1 RES1               0.0000
      2 C2         208.7363  53.5696  69.1183 C.ar           1 RES1               0.0000
      3 C3         210.8705  54.7278  68.7538 C.2            1 RES1               0.0000
      4 C4         209.8340  53.2373  66.9494 C.2            1 RES1               0.0000
      5 C5         208.9200  55.5019  67.4066 C.3            1 RES1               0.0000
      6 C6         208.0692  54.3132  70.0872 C.ar           1 RES1               0.0000
      7 C7         208.5968  52.1846  69.1486 C.ar           1 RES1               0.0000
      8 N8         212.0179  54.0348  68.5026 N.am           1 RES1               0.0000
      9 O9         210.8590  55.6588  69.5496 O.2            1 RES1               0.0000
     10 N10        211.1158  52.7973  66.7463 N.am           1 RES1               0.0000
     11 O11        208.9189  52.7893  66.2696 O.2            1 RES1               0.0000
     12 C12        209.6718  56.0624  66.2096 C.3            1 RES1               0.0000
     13 C13        207.2885  53.6949  71.0498 C.ar           1 RES1               0.0000
     14 C14        207.8157  51.5683  70.1122 C.ar           1 RES1               0.0000
     15 C15        212.2138  53.1264  67.4935 C.2            1 RES1               0.0000
     16 C16        207.1608  52.3223  71.0627 C.ar           1 RES1               0.0000
     17 O17        213.3242  52.6470  67.2833 O.2            1 RES1               0.0000
     18 H18        207.9078  55.2228  67.0887 H              1 RES1               0.0000
     19 H19        208.8281  56.2885  68.1656 H              1 RES1               0.0000
     20 H20        208.1598  55.3943  70.0944 H              1 RES1               0.0000
     21 H21        209.1037  51.5712  68.4114 H              1 RES1               0.0000
     22 H22        212.8029  54.2080  69.1223 H              1 RES1               0.0000
     23 H23        211.2653  52.1660  65.9656 H              1 RES1               0.0000
     24 H24        209.1532  56.9259  65.7982 H              1 RES1               0.0000
     25 H25        210.6745  56.3736  66.4951 H              1 RES1               0.0000
     26 H26        209.7597  55.3142  65.4245 H              1 RES1               0.0000
     27 H27        206.7763  54.2927  71.7964 H              1 RES1               0.0000
     28 H28        207.7186  50.4877  70.1190 H              1 RES1               0.0000
     29 H29        206.5489  51.8382  71.8166 H              1 RES1               0.0000
@<TRIPOS>BOND
    1    1    2 1     
    2    1    3 1     
    3    1    4 1     
    4    1    5 1     
    5    2    6 ar    
    6    2    7 ar    
    7    3    8 1     
    8    3    9 2     
    9    4   10 1     
   10    4   11 2     
   11    5   12 1     
   12    5   18 1     
   13    5   19 1     
   14    6   13 ar    
   15    6   20 1     
   16    7   14 ar    
   17    7   21 1     
   18    8   15 1     
   19    8   22 1     
   20   10   15 1     
   21   10   23 1     
   22   12   24 1     
   23   12   25 1     
   24   12   26 1     
   25   13   16 ar    
   26   13   27 1     
   27   14   16 ar    
   28   14   28 1     
   29   15   17 2     
   30   16   29 1     
@<TRIPOS>SUBSTRUCTURE
      1 RES1           1
@<TRIPOS>SET
DONOR_HYDROGENS      STATIC     ATOMS    <user>   **** ""
2 22 23
ATOM$RED        STATIC     ATOMS    COLORGROUP SYSTEM
2 22 23
@<TRIPOS>COMMENT
> <Gold.Version>
2022.3.0

> <Gold.Id.Protein>
unknown|4d1n_clean|pdb

> <Gold.Protein.RotatedTorsions>
[ 9571 9508 9507 9505 ] final  127.96 input   60.00 | X-H torsion
[ 7907 7874 7873 7870 ] final  167.20 input   60.00 | X-H torsion

> <Gold.Protein.ActiveResidues>
 ASP403  THR404  ILE407  TYR408  ALA410  LYS411  TRP414  GLN425  TRP426  SER427 
 LYS428  LEU429  GLN430  VAL431  PHE432  ASP433  TYR453  SER462  ALA463  ILE464 

> <Gold.Protein.RotatedAtoms>
  204.9560   51.7167   60.4428 H   0  0  0  0  0  0  0  0  0  0  0  0  # atno 7907 bound_to 7874
  208.9257   51.5152   72.5449 H   0  0  0  0  0  0  0  0  0  0  0  0  # atno 9571 bound_to 9508
  208.5412   52.7514   73.5307 LP  0  0  0  0  0  0  0  0  0  0  0  0  # atno 27207 bound_to 9508
  207.5725   51.4396   73.4455 LP  0  0  0  0  0  0  0  0  0  0  0  0  # atno 27208 bound_to 9508
  204.9625   51.1559   61.9701 LP  0  0  0  0  0  0  0  0  0  0  0  0  # atno 27219 bound_to 7874
  204.5811   50.1603   60.7332 LP  0  0  0  0  0  0  0  0  0  0  0  0  # atno 27220 bound_to 7874

> <Gold.Score>
     Fitness  S(hb_ext) S(vdw_ext)  S(hb_int)    S(int)      intcor
     25.58       0.28      19.36       0.00      -1.33      -0.77

> <Gold.Goldscore.Fitness>
25.5773

> <Gold.Goldscore.Internal.Vdw>
-1.6158

> <Gold.Goldscore.Internal.Torsion>
-0.4869

> <Gold.Goldscore.External.Vdw>
19.3629

> <Gold.Goldscore.Internal.HBond>
0.0000

> <Gold.Goldscore.External.HBond>
0.2824

> <Gold.Goldscore.Internal.Correction>
-0.7737

> <Gold.Goldscore.Hbonds>
donor molecule, donor type, donor heavy atom, donor atom, acceptor molecule, acceptor atom, score
      P1  H  8001  8055       L1    11  0.02
      P1  H  8084  8133       L1     9  0.08
      P1  H  8145  8191       L1    17  0.05

> <Gold.Goldscore.Internal.Vdw.Weighted>
-1.6158

> <Gold.Goldscore.Internal.Torsion.Weighted>
-0.4869

> <Gold.Goldscore.External.Vdw.Weighted>
26.6240

> <Gold.Goldscore.Internal.HBond.Weighted>
0.0000

> <Gold.Goldscore.External.HBond.Weighted>
0.2824

> <Gold.Goldscore.Internal.Correction.Weighted>
-0.7737

> <Gold.Rescore>
     Score     S(PLP)   S(hbond)     S(cho)   S(metal)  DE(clash)   DE(tors)     intcor
     24.89     -20.76       2.00       0.00       0.00       1.26       0.31       ----

> <Gold.PLP.Fitness>
24.8940

> <Gold.PLP.PLP>
-20.7617

> <Gold.PLP.part.hbond>
-4.0000

> <Gold.PLP.part.metal>
0.0000

> <Gold.PLP.part.buried>
-1.4105

> <Gold.PLP.part.nonpolar>
-17.5729

> <Gold.PLP.part.repulsive>
2.1054

> <Gold.PLP.ligand.clash>
1.2578

> <Gold.PLP.ligand.torsion>
0.3064

> <Gold.PLP.Chemscore.Hbond>
2.0010

> <Gold.PLP.Chemscore.CHOScore>
0.0000

> <Gold.PLP.Chemscore.Metal>
0.0000

> <Gold.Chemscore.Hbonds>
donor molecule, donor type, donor heavy atom, donor atom, acceptor molecule, acceptor atom, score
      P1  H  8001  8055       L1    11  0.13
      P1  H  8084  8133       L1     9  0.33
      P1  H  8145  8191       L1    17  0.81

> <Gold.PLP.Chemscore.Internal.Correction>
   9.000000E+99

#       Name:                CT1002167954
#       Creating user name   hitesit
#       Creation time:       Sun Apr 16 22:54:42 2023


#       File generated by GOLD software.
#

@<TRIPOS>MOLECULE
CT1002167954|ligand_prepared|mol2|1|dock8
    29    30     1
SMALL
NO_CHARGES


@<TRIPOS>ATOM
      1 C1         207.1702  52.8510  69.4254 C.3            1 RES1               0.0000
      2 C2         207.3627  54.1286  70.2677 C.ar           1 RES1               0.0000
      3 C3         206.1926  53.2151  68.3119 C.2            1 RES1               0.0000
      4 C4         208.5565  52.4534  68.9307 C.2            1 RES1               0.0000
      5 C5         206.5871  51.6600  70.2210 C.3            1 RES1               0.0000
      6 C6         206.5540  54.3774  71.3726 C.ar           1 RES1               0.0000
      7 C7         208.3446  55.0647  69.9543 C.ar           1 RES1               0.0000
      8 N8         206.6955  53.3637  67.0530 N.am           1 RES1               0.0000
      9 O9         205.0050  53.4078  68.5419 O.2            1 RES1               0.0000
     10 N10        208.7984  52.5111  67.5831 N.am           1 RES1               0.0000
     11 O11        209.4467  52.1066  69.6972 O.2            1 RES1               0.0000
     12 C12        206.7877  50.3134  69.5440 C.3            1 RES1               0.0000
     13 C13        206.7226  55.5192  72.1383 C.ar           1 RES1               0.0000
     14 C14        208.5114  56.2060  70.7212 C.ar           1 RES1               0.0000
     15 C15        207.9402  52.9776  66.6248 C.2            1 RES1               0.0000
     16 C16        207.7016  56.4339  71.8135 C.ar           1 RES1               0.0000
     17 O17        208.2497  53.0496  65.4390 O.2            1 RES1               0.0000
     18 H18        207.0594  51.6315  71.2107 H              1 RES1               0.0000
     19 H19        205.5125  51.8252  70.3669 H              1 RES1               0.0000
     20 H20        205.7767  53.6702  71.6421 H              1 RES1               0.0000
     21 H21        208.9925  54.9068  69.0988 H              1 RES1               0.0000
     22 H22        206.0903  53.8026  66.3664 H              1 RES1               0.0000
     23 H23        209.7017  52.1750  67.2648 H              1 RES1               0.0000
     24 H24        206.3603  49.5126  70.1438 H              1 RES1               0.0000
     25 H25        206.3090  50.2976  68.5671 H              1 RES1               0.0000
     26 H26        207.8467  50.1051  69.4059 H              1 RES1               0.0000
     27 H27        206.0818  55.6945  72.9961 H              1 RES1               0.0000
     28 H28        209.2828  56.9235  70.4616 H              1 RES1               0.0000
     29 H29        207.8338  57.3280  72.4137 H              1 RES1               0.0000
@<TRIPOS>BOND
    1    1    2 1     
    2    1    3 1     
    3    1    4 1     
    4    1    5 1     
    5    2    6 ar    
    6    2    7 ar    
    7    3    8 1     
    8    3    9 2     
    9    4   10 1     
   10    4   11 2     
   11    5   12 1     
   12    5   18 1     
   13    5   19 1     
   14    6   13 ar    
   15    6   20 1     
   16    7   14 ar    
   17    7   21 1     
   18    8   15 1     
   19    8   22 1     
   20   10   15 1     
   21   10   23 1     
   22   12   24 1     
   23   12   25 1     
   24   12   26 1     
   25   13   16 ar    
   26   13   27 1     
   27   14   16 ar    
   28   14   28 1     
   29   15   17 2     
   30   16   29 1     
@<TRIPOS>SUBSTRUCTURE
      1 RES1           1
@<TRIPOS>SET
DONOR_HYDROGENS      STATIC     ATOMS    <user>   **** ""
2 22 23
ATOM$RED        STATIC     ATOMS    COLORGROUP SYSTEM
2 22 23
@<TRIPOS>COMMENT
> <Gold.Version>
2022.3.0

> <Gold.Id.Protein>
unknown|4d1n_clean|pdb

> <Gold.Protein.RotatedTorsions>
[ 9571 9508 9507 9505 ] final   73.13 input   60.00 | X-H torsion
[ 7907 7874 7873 7870 ] final  -99.85 input   60.00 | X-H torsion

> <Gold.Protein.ActiveResidues>
 ASP403  THR404  ILE407  TYR408  ALA410  LYS411  TRP414  GLN425  TRP426  SER427 
 LYS428  LEU429  GLN430  VAL431  PHE432  ASP433  TYR453  SER462  ALA463  ILE464 

> <Gold.Protein.RotatedAtoms>
  204.6105   50.4063   60.3702 H   0  0  0  0  0  0  0  0  0  0  0  0  # atno 7907 bound_to 7874
  209.1350   52.2933   72.8514 H   0  0  0  0  0  0  0  0  0  0  0  0  # atno 9571 bound_to 9508
  207.8191   52.3561   73.8065 LP  0  0  0  0  0  0  0  0  0  0  0  0  # atno 27207 bound_to 9508
  208.0837   51.0513   72.8610 LP  0  0  0  0  0  0  0  0  0  0  0  0  # atno 27208 bound_to 9508
  205.0415   51.9063   60.8301 LP  0  0  0  0  0  0  0  0  0  0  0  0  # atno 27219 bound_to 7874
  204.8502   50.7301   61.9465 LP  0  0  0  0  0  0  0  0  0  0  0  0  # atno 27220 bound_to 7874

> <Gold.Score>
     Fitness  S(hb_ext) S(vdw_ext)  S(hb_int)    S(int)      intcor
     25.27       0.16      18.89       0.00      -0.87      -0.77

> <Gold.Goldscore.Fitness>
25.2672

> <Gold.Goldscore.Internal.Vdw>
-0.7996

> <Gold.Goldscore.Internal.Torsion>
-0.8309

> <Gold.Goldscore.External.Vdw>
18.8857

> <Gold.Goldscore.Internal.HBond>
0.0000

> <Gold.Goldscore.External.HBond>
0.1645

> <Gold.Goldscore.Internal.Correction>
-0.7653

> <Gold.Goldscore.Hbonds>
donor molecule, donor type, donor heavy atom, donor atom, acceptor molecule, acceptor atom, score
      P1  H  8001  8055       L1    17  0.05
      P1  H  8084  8134       L1    11  0.01
      L1  H    10    23       P1  8004  0.02

> <Gold.Goldscore.Internal.Vdw.Weighted>
-0.7996

> <Gold.Goldscore.Internal.Torsion.Weighted>
-0.8309

> <Gold.Goldscore.External.Vdw.Weighted>
25.9678

> <Gold.Goldscore.Internal.HBond.Weighted>
0.0000

> <Gold.Goldscore.External.HBond.Weighted>
0.1645

> <Gold.Goldscore.Internal.Correction.Weighted>
-0.7653

> <Gold.Rescore>
     Score     S(PLP)   S(hbond)     S(cho)   S(metal)  DE(clash)   DE(tors)     intcor
     20.96     -18.89       1.43       0.00       0.00       0.00       1.10       ----

> <Gold.PLP.Fitness>
20.9627

> <Gold.PLP.PLP>
-18.8931

> <Gold.PLP.part.hbond>
-3.9544

> <Gold.PLP.part.metal>
0.0000

> <Gold.PLP.part.buried>
-3.4849

> <Gold.PLP.part.nonpolar>
-12.5837

> <Gold.PLP.part.repulsive>
0.9363

> <Gold.PLP.ligand.clash>
0.0000

> <Gold.PLP.ligand.torsion>
1.1044

> <Gold.PLP.Chemscore.Hbond>
1.4261

> <Gold.PLP.Chemscore.CHOScore>
0.0000

> <Gold.PLP.Chemscore.Metal>
0.0000

> <Gold.Chemscore.Hbonds>
donor molecule, donor type, donor heavy atom, donor atom, acceptor molecule, acceptor atom, score
      L1  H    10    23       P1  8004  0.80
      P1  H  6785  6849       L1    17  0.14
      P1  H  8084  8134       L1    11  0.50

> <Gold.PLP.Chemscore.Internal.Correction>
   9.000000E+99

#       Name:                CT1002167954
#       Creating user name   hitesit
#       Creation time:       Sun Apr 16 22:54:41 2023


#       File generated by GOLD software.
#

@<TRIPOS>MOLECULE
CT1002167954|ligand_prepared|mol2|1|dock6
    29    30     1
SMALL
NO_CHARGES


@<TRIPOS>ATOM
      1 C1         206.6278  53.3836  69.4445 C.3            1 RES1               0.0000
      2 C2         207.6589  53.9669  68.4569 C.ar           1 RES1               0.0000
      3 C3         206.0031  52.1777  68.7491 C.2            1 RES1               0.0000
      4 C4         207.4000  53.0391  70.7133 C.2            1 RES1               0.0000
      5 C5         205.4995  54.3703  69.8250 C.3            1 RES1               0.0000
      6 C6         208.9782  53.5243  68.4662 C.ar           1 RES1               0.0000
      7 C7         207.3056  54.9445  67.5305 C.ar           1 RES1               0.0000
      8 N8         206.3698  50.9379  69.1832 N.am           1 RES1               0.0000
      9 O9         205.2306  52.3120  67.8081 O.2            1 RES1               0.0000
     10 N10        207.5001  51.7186  71.0654 N.am           1 RES1               0.0000
     11 O11        207.9367  53.8979  71.4023 O.2            1 RES1               0.0000
     12 C12        204.6458  53.9042  70.9939 C.3            1 RES1               0.0000
     13 C13        209.9100  54.0382  67.5796 C.ar           1 RES1               0.0000
     14 C14        208.2391  55.4572  66.6449 C.ar           1 RES1               0.0000
     15 C15        207.0462  50.6500  70.3413 C.2            1 RES1               0.0000
     16 C16        209.5411  55.0045  66.6682 C.ar           1 RES1               0.0000
     17 O17        207.2222  49.4881  70.6966 O.2            1 RES1               0.0000
     18 H18        205.9480  55.3386  70.0793 H              1 RES1               0.0000
     19 H19        204.8518  54.5196  68.9523 H              1 RES1               0.0000
     20 H20        209.2877  52.7662  69.1779 H              1 RES1               0.0000
     21 H21        206.2872  55.3164  67.4947 H              1 RES1               0.0000
     22 H22        206.1180  50.1522  68.5919 H              1 RES1               0.0000
     23 H23        207.9551  51.5132  71.9492 H              1 RES1               0.0000
     24 H24        203.8697  54.6326  71.2193 H              1 RES1               0.0000
     25 H25        204.1642  52.9556  70.7657 H              1 RES1               0.0000
     26 H26        205.2538  53.7697  71.8861 H              1 RES1               0.0000
     27 H27        210.9338  53.6795  67.6029 H              1 RES1               0.0000
     28 H28        207.9444  56.2180  65.9297 H              1 RES1               0.0000
     29 H29        210.2711  55.4066  65.9735 H              1 RES1               0.0000
@<TRIPOS>BOND
    1    1    2 1     
    2    1    3 1     
    3    1    4 1     
    4    1    5 1     
    5    2    6 ar    
    6    2    7 ar    
    7    3    8 1     
    8    3    9 2     
    9    4   10 1     
   10    4   11 2     
   11    5   12 1     
   12    5   18 1     
   13    5   19 1     
   14    6   13 ar    
   15    6   20 1     
   16    7   14 ar    
   17    7   21 1     
   18    8   15 1     
   19    8   22 1     
   20   10   15 1     
   21   10   23 1     
   22   12   24 1     
   23   12   25 1     
   24   12   26 1     
   25   13   16 ar    
   26   13   27 1     
   27   14   16 ar    
   28   14   28 1     
   29   15   17 2     
   30   16   29 1     
@<TRIPOS>SUBSTRUCTURE
      1 RES1           1
@<TRIPOS>SET
DONOR_HYDROGENS      STATIC     ATOMS    <user>   **** ""
2 22 23
ATOM$RED        STATIC     ATOMS    COLORGROUP SYSTEM
2 22 23
@<TRIPOS>COMMENT
> <Gold.Version>
2022.3.0

> <Gold.Id.Protein>
unknown|4d1n_clean|pdb

> <Gold.Protein.RotatedTorsions>
[ 9571 9508 9507 9505 ] final   12.80 input   60.00 | X-H torsion
[ 7907 7874 7873 7870 ] final    5.64 input   60.00 | X-H torsion

> <Gold.Protein.ActiveResidues>
 ASP403  THR404  ILE407  TYR408  ALA410  LYS411  TRP414  GLN425  TRP426  SER427 
 LYS428  LEU429  GLN430  VAL431  PHE432  ASP433  TYR453  SER462  ALA463  ILE464 

> <Gold.Protein.RotatedAtoms>
  204.7893   50.5246   61.8445 H   0  0  0  0  0  0  0  0  0  0  0  0  # atno 7907 bound_to 7874
  208.6061   52.7449   73.4851 H   0  0  0  0  0  0  0  0  0  0  0  0  # atno 9571 bound_to 9508
  207.5563   51.5016   73.4929 LP  0  0  0  0  0  0  0  0  0  0  0  0  # atno 27207 bound_to 9508
  208.8791   51.4512   72.5366 LP  0  0  0  0  0  0  0  0  0  0  0  0  # atno 27208 bound_to 9508
  204.6415   50.5921   60.2256 LP  0  0  0  0  0  0  0  0  0  0  0  0  # atno 27219 bound_to 7874
  205.0701   51.9252   61.0657 LP  0  0  0  0  0  0  0  0  0  0  0  0  # atno 27220 bound_to 7874

> <Gold.Score>
     Fitness  S(hb_ext) S(vdw_ext)  S(hb_int)    S(int)      intcor
     25.14       1.30      17.64       0.00      -0.42      -0.77

> <Gold.Goldscore.Fitness>
25.1354

> <Gold.Goldscore.Internal.Vdw>
-0.6208

> <Gold.Goldscore.Internal.Torsion>
-0.5678

> <Gold.Goldscore.External.Vdw>
17.6400

> <Gold.Goldscore.Internal.HBond>
0.0000

> <Gold.Goldscore.External.HBond>
1.3037

> <Gold.Goldscore.Internal.Correction>
-0.7653

> <Gold.Goldscore.Hbonds>
donor molecule, donor type, donor heavy atom, donor atom, acceptor molecule, acceptor atom, score
      P1  H  8084  8134       L1    11  0.01
      L1  H     8    22       P1  7916  0.15
      L1  H    10    23       P1  9508  0.49

> <Gold.Goldscore.Internal.Vdw.Weighted>
-0.6208

> <Gold.Goldscore.Internal.Torsion.Weighted>
-0.5678

> <Gold.Goldscore.External.Vdw.Weighted>
24.2550

> <Gold.Goldscore.Internal.HBond.Weighted>
0.0000

> <Gold.Goldscore.External.HBond.Weighted>
1.3037

> <Gold.Goldscore.Internal.Correction.Weighted>
-0.7653

> <Gold.Rescore>
     Score     S(PLP)   S(hbond)     S(cho)   S(metal)  DE(clash)   DE(tors)     intcor
     20.10     -17.50       1.73       0.00       0.00       0.00       1.30       ----

> <Gold.PLP.Fitness>
20.0979

> <Gold.PLP.PLP>
-17.5006

> <Gold.PLP.part.hbond>
-2.9950

> <Gold.PLP.part.metal>
0.0000

> <Gold.PLP.part.buried>
0.6550

> <Gold.PLP.part.nonpolar>
-15.4378

> <Gold.PLP.part.repulsive>
0.4366

> <Gold.PLP.ligand.clash>
0.0000

> <Gold.PLP.ligand.torsion>
1.3016

> <Gold.PLP.Chemscore.Hbond>
1.7335

> <Gold.PLP.Chemscore.CHOScore>
0.0000

> <Gold.PLP.Chemscore.Metal>
0.0000

> <Gold.Chemscore.Hbonds>
donor molecule, donor type, donor heavy atom, donor atom, acceptor molecule, acceptor atom, score
      L1  H    10    23       P1  9508  0.98
      P1  H  9508  9571       L1    11  0.02

> <Gold.PLP.Chemscore.Internal.Correction>
   9.000000E+99

#       Name:                CT1002167954
#       Creating user name   hitesit
#       Creation time:       Sun Apr 16 22:54:42 2023


#       File generated by GOLD software.
#

@<TRIPOS>MOLECULE
CT1002167954|ligand_prepared|mol2|1|dock9
    29    30     1
SMALL
NO_CHARGES


@<TRIPOS>ATOM
      1 C1         206.7915  52.5155  69.8135 C.3            1 RES1               0.0000
      2 C2         206.2678  53.8001  70.4874 C.ar           1 RES1               0.0000
      3 C3         206.2735  52.5427  68.3785 C.2            1 RES1               0.0000
      4 C4         208.3112  52.5632  69.9273 C.2            1 RES1               0.0000
      5 C5         206.3026  51.2124  70.4876 C.3            1 RES1               0.0000
      6 C6         206.9876  54.9882  70.4037 C.ar           1 RES1               0.0000
      7 C7         205.0673  53.8133  71.1926 C.ar           1 RES1               0.0000
      8 N8         207.1686  52.8244  67.3889 N.am           1 RES1               0.0000
      9 O9         205.0898  52.3588  68.1228 O.2            1 RES1               0.0000
     10 N10        209.0384  52.6761  68.7714 N.am           1 RES1               0.0000
     11 O11        208.8848  52.5207  71.0088 O.2            1 RES1               0.0000
     12 C12        207.1661  50.0000  70.1768 C.3            1 RES1               0.0000
     13 C13        206.5228  56.1483  71.0009 C.ar           1 RES1               0.0000
     14 C14        204.6044  54.9745  71.7893 C.ar           1 RES1               0.0000
     15 C15        208.5349  52.8398  67.5097 C.2            1 RES1               0.0000
     16 C16        205.3309  56.1423  71.6936 C.ar           1 RES1               0.0000
     17 O17        209.2534  52.9895  66.5256 O.2            1 RES1               0.0000
     18 H18        206.2829  51.3628  71.5740 H              1 RES1               0.0000
     19 H19        205.2761  51.0084  70.1587 H              1 RES1               0.0000
     20 H20        207.9289  55.0116  69.8649 H              1 RES1               0.0000
     21 H21        204.4796  52.9060  71.2818 H              1 RES1               0.0000
     22 H22        206.7867  53.0441  66.4744 H              1 RES1               0.0000
     23 H23        210.0488  52.6340  68.8597 H              1 RES1               0.0000
     24 H24        206.7791  49.1131  70.6742 H              1 RES1               0.0000
     25 H25        207.1877  49.8060  69.1064 H              1 RES1               0.0000
     26 H26        208.1886  50.1583  70.5134 H              1 RES1               0.0000
     27 H27        207.0989  57.0644  70.9239 H              1 RES1               0.0000
     28 H28        203.6661  54.9650  72.3340 H              1 RES1               0.0000
     29 H29        204.9668  57.0513  72.1610 H              1 RES1               0.0000
@<TRIPOS>BOND
    1    1    2 1     
    2    1    3 1     
    3    1    4 1     
    4    1    5 1     
    5    2    6 ar    
    6    2    7 ar    
    7    3    8 1     
    8    3    9 2     
    9    4   10 1     
   10    4   11 2     
   11    5   12 1     
   12    5   18 1     
   13    5   19 1     
   14    6   13 ar    
   15    6   20 1     
   16    7   14 ar    
   17    7   21 1     
   18    8   15 1     
   19    8   22 1     
   20   10   15 1     
   21   10   23 1     
   22   12   24 1     
   23   12   25 1     
   24   12   26 1     
   25   13   16 ar    
   26   13   27 1     
   27   14   16 ar    
   28   14   28 1     
   29   15   17 2     
   30   16   29 1     
@<TRIPOS>SUBSTRUCTURE
      1 RES1           1
@<TRIPOS>SET
DONOR_HYDROGENS      STATIC     ATOMS    <user>   **** ""
2 22 23
ATOM$RED        STATIC     ATOMS    COLORGROUP SYSTEM
2 22 23
@<TRIPOS>COMMENT
> <Gold.Version>
2022.3.0

> <Gold.Id.Protein>
unknown|4d1n_clean|pdb

> <Gold.Protein.RotatedTorsions>
[ 9571 9508 9507 9505 ] final  179.49 input   60.00 | X-H torsion
[ 7907 7874 7873 7870 ] final  161.61 input   60.00 | X-H torsion

> <Gold.Protein.ActiveResidues>
 ASP403  THR404  ILE407  TYR408  ALA410  LYS411  TRP414  GLN425  TRP426  SER427 
 LYS428  LEU429  GLN430  VAL431  PHE432  ASP433  TYR453  SER462  ALA463  ILE464 

> <Gold.Protein.RotatedAtoms>
  204.9768   51.7689   60.5148 H   0  0  0  0  0  0  0  0  0  0  0  0  # atno 7907 bound_to 7874
  208.2729   51.0719   72.7441 H   0  0  0  0  0  0  0  0  0  0  0  0  # atno 9571 bound_to 9508
  209.0808   52.4638   72.9851 LP  0  0  0  0  0  0  0  0  0  0  0  0  # atno 27207 bound_to 9508
  207.6902   52.1735   73.7905 LP  0  0  0  0  0  0  0  0  0  0  0  0  # atno 27208 bound_to 9508
  204.9409   51.0673   61.9823 LP  0  0  0  0  0  0  0  0  0  0  0  0  # atno 27219 bound_to 7874
  204.5819   50.1962   60.6486 LP  0  0  0  0  0  0  0  0  0  0  0  0  # atno 27220 bound_to 7874

> <Gold.Score>
     Fitness  S(hb_ext) S(vdw_ext)  S(hb_int)    S(int)      intcor
     23.94       1.41      17.30       0.00      -1.24      -0.77

> <Gold.Goldscore.Fitness>
23.9444

> <Gold.Goldscore.Internal.Vdw>
-1.0252

> <Gold.Goldscore.Internal.Torsion>
-0.9850

> <Gold.Goldscore.External.Vdw>
17.2957

> <Gold.Goldscore.Internal.HBond>
0.0000

> <Gold.Goldscore.External.HBond>
1.4077

> <Gold.Goldscore.Internal.Correction>
-0.7653

> <Gold.Goldscore.Hbonds>
donor molecule, donor type, donor heavy atom, donor atom, acceptor molecule, acceptor atom, score
      P1  H  8001  8055       L1    17  0.02
      P1  H  8084  8134       L1    11  0.68

> <Gold.Goldscore.Internal.Vdw.Weighted>
-1.0252

> <Gold.Goldscore.Internal.Torsion.Weighted>
-0.9850

> <Gold.Goldscore.External.Vdw.Weighted>
23.7816

> <Gold.Goldscore.Internal.HBond.Weighted>
0.0000

> <Gold.Goldscore.External.HBond.Weighted>
1.4077

> <Gold.Goldscore.Internal.Correction.Weighted>
-0.7653

> <Gold.Rescore>
     Score     S(PLP)   S(hbond)     S(cho)   S(metal)  DE(clash)   DE(tors)     intcor
     20.84     -17.26       1.95       0.00       0.00       0.00       1.13       ----

> <Gold.PLP.Fitness>
20.8407

> <Gold.PLP.PLP>
-17.2579

> <Gold.PLP.part.hbond>
-3.2700

> <Gold.PLP.part.metal>
0.0000

> <Gold.PLP.part.buried>
-3.3690

> <Gold.PLP.part.nonpolar>
-12.3706

> <Gold.PLP.part.repulsive>
0.4925

> <Gold.PLP.ligand.clash>
0.0000

> <Gold.PLP.ligand.torsion>
1.1306

> <Gold.PLP.Chemscore.Hbond>
1.9480

> <Gold.PLP.Chemscore.CHOScore>
0.0000

> <Gold.PLP.Chemscore.Metal>
0.0000

> <Gold.Chemscore.Hbonds>
donor molecule, donor type, donor heavy atom, donor atom, acceptor molecule, acceptor atom, score
      P1  H  8084  8134       L1    11  0.47

> <Gold.PLP.Chemscore.Internal.Correction>
   9.000000E+99

#       Name:                CT1002167954
#       Creating user name   hitesit
#       Creation time:       Sun Apr 16 22:54:40 2023


#       File generated by GOLD software.
#

@<TRIPOS>MOLECULE
CT1002167954|ligand_prepared|mol2|1|dock5
    29    30     1
SMALL
NO_CHARGES


@<TRIPOS>ATOM
      1 C1         207.0170  53.5321  70.4001 C.3            1 RES1               0.0000
      2 C2         207.6230  54.0350  71.7263 C.ar           1 RES1               0.0000
      3 C3         207.1886  54.6659  69.3935 C.2            1 RES1               0.0000
      4 C4         207.7760  52.2598  70.0396 C.2            1 RES1               0.0000
      5 C5         205.5137  53.1814  70.4934 C.3            1 RES1               0.0000
      6 C6         207.0746  53.6513  72.9465 C.ar           1 RES1               0.0000
      7 C7         208.7299  54.8792  71.7456 C.ar           1 RES1               0.0000
      8 N8         208.1428  54.5168  68.4306 N.am           1 RES1               0.0000
      9 O9         206.5241  55.6921  69.4674 O.2            1 RES1               0.0000
     10 N10        208.5553  52.2746  68.9126 N.am           1 RES1               0.0000
     11 O11        207.7192  51.2499  70.7304 O.2            1 RES1               0.0000
     12 C12        204.8542  52.9457  69.1437 C.3            1 RES1               0.0000
     13 C13        207.6150  54.0933  74.1427 C.ar           1 RES1               0.0000
     14 C14        209.2687  55.3202  72.9430 C.ar           1 RES1               0.0000
     15 C15        208.7974  53.3551  68.1087 C.2            1 RES1               0.0000
     16 C16        208.7125  54.9275  74.1418 C.ar           1 RES1               0.0000
     17 O17        209.5541  53.3043  67.1433 O.2            1 RES1               0.0000
     18 H18        205.3991  52.2780  71.1049 H              1 RES1               0.0000
     19 H19        204.9911  54.0001  71.0034 H              1 RES1               0.0000
     20 H20        206.2093  52.9972  72.9669 H              1 RES1               0.0000
     21 H21        209.1834  55.2020  70.8145 H              1 RES1               0.0000
     22 H22        208.3929  55.3458  67.9009 H              1 RES1               0.0000
     23 H23        208.9958  51.3991  68.6485 H              1 RES1               0.0000
     24 H24        203.8007  52.7033  69.2662 H              1 RES1               0.0000
     25 H25        204.9273  53.8331  68.5184 H              1 RES1               0.0000
     26 H26        205.3329  52.1212  68.6193 H              1 RES1               0.0000
     27 H27        207.1727  53.7824  75.0834 H              1 RES1               0.0000
     28 H28        210.1321  55.9772  72.9375 H              1 RES1               0.0000
     29 H29        209.1359  55.2733  75.0790 H              1 RES1               0.0000
@<TRIPOS>BOND
    1    1    2 1     
    2    1    3 1     
    3    1    4 1     
    4    1    5 1     
    5    2    6 ar    
    6    2    7 ar    
    7    3    8 1     
    8    3    9 2     
    9    4   10 1     
   10    4   11 2     
   11    5   12 1     
   12    5   18 1     
   13    5   19 1     
   14    6   13 ar    
   15    6   20 1     
   16    7   14 ar    
   17    7   21 1     
   18    8   15 1     
   19    8   22 1     
   20   10   15 1     
   21   10   23 1     
   22   12   24 1     
   23   12   25 1     
   24   12   26 1     
   25   13   16 ar    
   26   13   27 1     
   27   14   16 ar    
   28   14   28 1     
   29   15   17 2     
   30   16   29 1     
@<TRIPOS>SUBSTRUCTURE
      1 RES1           1
@<TRIPOS>SET
DONOR_HYDROGENS      STATIC     ATOMS    <user>   **** ""
2 22 23
ATOM$RED        STATIC     ATOMS    COLORGROUP SYSTEM
2 22 23
@<TRIPOS>COMMENT
> <Gold.Version>
2022.3.0

> <Gold.Id.Protein>
unknown|4d1n_clean|pdb

> <Gold.Protein.RotatedTorsions>
[ 9571 9508 9507 9505 ] final -108.19 input   60.00 | X-H torsion
[ 7907 7874 7873 7870 ] final   72.00 input   60.00 | X-H torsion

> <Gold.Protein.ActiveResidues>
 ASP403  THR404  ILE407  TYR408  ALA410  LYS411  TRP414  GLN425  TRP426  SER427 
 LYS428  LEU429  GLN430  VAL431  PHE432  ASP433  TYR453  SER462  ALA463  ILE464 

> <Gold.Protein.RotatedAtoms>
  205.0417   51.5167   61.8078 H   0  0  0  0  0  0  0  0  0  0  0  0  # atno 7907 bound_to 7874
  207.5661   51.4902   73.4831 H   0  0  0  0  0  0  0  0  0  0  0  0  # atno 9571 bound_to 9508
  208.8895   51.4638   72.5366 LP  0  0  0  0  0  0  0  0  0  0  0  0  # atno 27207 bound_to 9508
  208.5931   52.7524   73.4949 LP  0  0  0  0  0  0  0  0  0  0  0  0  # atno 27208 bound_to 9508
  204.6062   50.1018   61.1330 LP  0  0  0  0  0  0  0  0  0  0  0  0  # atno 27219 bound_to 7874
  204.8511   51.4159   60.1952 LP  0  0  0  0  0  0  0  0  0  0  0  0  # atno 27220 bound_to 7874

> <Gold.Score>
     Fitness  S(hb_ext) S(vdw_ext)  S(hb_int)    S(int)      intcor
     19.71       0.17      14.72       0.00      -0.70      -0.77

> <Gold.Goldscore.Fitness>
19.7109

> <Gold.Goldscore.Internal.Vdw>
-0.8945

> <Gold.Goldscore.Internal.Torsion>
-0.5687

> <Gold.Goldscore.External.Vdw>
14.7202

> <Gold.Goldscore.Internal.HBond>
0.0000

> <Gold.Goldscore.External.HBond>
0.1686

> <Gold.Goldscore.Internal.Correction>
-0.7653

> <Gold.Goldscore.Hbonds>
donor molecule, donor type, donor heavy atom, donor atom, acceptor molecule, acceptor atom, score
      P1  H  8084  8134       L1    11  0.08

> <Gold.Goldscore.Internal.Vdw.Weighted>
-0.8945

> <Gold.Goldscore.Internal.Torsion.Weighted>
-0.5687

> <Gold.Goldscore.External.Vdw.Weighted>
20.2403

> <Gold.Goldscore.Internal.HBond.Weighted>
0.0000

> <Gold.Goldscore.External.HBond.Weighted>
0.1686

> <Gold.Goldscore.Internal.Correction.Weighted>
-0.7653

> <Gold.Rescore>
     Score     S(PLP)   S(hbond)     S(cho)   S(metal)  DE(clash)   DE(tors)     intcor
     12.27     -14.42       0.00       0.00       0.00       0.00       1.08       ----

> <Gold.PLP.Fitness>
12.2699

> <Gold.PLP.PLP>
-14.4213

> <Gold.PLP.part.hbond>
-1.0000

> <Gold.PLP.part.metal>
0.0000

> <Gold.PLP.part.buried>
-1.5389

> <Gold.PLP.part.nonpolar>
-12.5642

> <Gold.PLP.part.repulsive>
0.3822

> <Gold.PLP.ligand.clash>
0.0000

> <Gold.PLP.ligand.torsion>
1.0757

> <Gold.PLP.Chemscore.Hbond>
0.0000

> <Gold.PLP.Chemscore.CHOScore>
0.0000

> <Gold.PLP.Chemscore.Metal>
0.0000

> <Gold.PLP.Chemscore.Internal.Correction>
   9.000000E+99

#       Name:                CT1002167954
#       Creating user name   hitesit
#       Creation time:       Sun Apr 16 22:54:41 2023


#       File generated by GOLD software.
#

@<TRIPOS>MOLECULE
CT1002167954|ligand_prepared|mol2|1|dock7
    29    30     1
SMALL
NO_CHARGES


@<TRIPOS>ATOM
      1 C1         209.6500  54.2587  67.7665 C.3            1 RES1               0.0000
      2 C2         209.4080  55.5462  66.9527 C.ar           1 RES1               0.0000
      3 C3         210.0137  53.1749  66.7558 C.2            1 RES1               0.0000
      4 C4         210.7621  54.5833  68.7578 C.2            1 RES1               0.0000
      5 C5         208.4162  53.7865  68.5704 C.3            1 RES1               0.0000
      6 C6         210.0694  55.7570  65.7465 C.ar           1 RES1               0.0000
      7 C7         208.5259  56.5294  67.3930 C.ar           1 RES1               0.0000
      8 N8         211.3177  52.7803  66.6943 N.am           1 RES1               0.0000
      9 O9         209.1766  52.7021  65.9969 O.2            1 RES1               0.0000
     10 N10        211.9588  53.9308  68.6166 N.am           1 RES1               0.0000
     11 O11        210.6183  55.4104  69.6497 O.2            1 RES1               0.0000
     12 C12        208.4728  52.3223  68.9767 C.3            1 RES1               0.0000
     13 C13        209.8546  56.9074  65.0058 C.ar           1 RES1               0.0000
     14 C14        208.3127  57.6793  66.6509 C.ar           1 RES1               0.0000
     15 C15        212.2971  53.0666  67.6111 C.2            1 RES1               0.0000
     16 C16        208.9759  57.8690  65.4572 C.ar           1 RES1               0.0000
     17 O17        213.4123  52.5614  67.5211 O.2            1 RES1               0.0000
     18 H18        208.3279  54.4007  69.4750 H              1 RES1               0.0000
     19 H19        207.5163  53.9502  67.9648 H              1 RES1               0.0000
     20 H20        210.7665  55.0125  65.3765 H              1 RES1               0.0000
     21 H21        207.9939  56.4019  68.3297 H              1 RES1               0.0000
     22 H22        211.5898  52.2205  65.8925 H              1 RES1               0.0000
     23 H23        212.6625  54.1054  69.3269 H              1 RES1               0.0000
     24 H24        207.5835  52.0430  69.5379 H              1 RES1               0.0000
     25 H25        208.5356  51.6808  68.1001 H              1 RES1               0.0000
     26 H26        209.3424  52.1287  69.6014 H              1 RES1               0.0000
     27 H27        210.3801  57.0526  64.0677 H              1 RES1               0.0000
     28 H28        207.6207  58.4337  67.0103 H              1 RES1               0.0000
     29 H29        208.8075  58.7700  64.8766 H              1 RES1               0.0000
@<TRIPOS>BOND
    1    1    2 1     
    2    1    3 1     
    3    1    4 1     
    4    1    5 1     
    5    2    6 ar    
    6    2    7 ar    
    7    3    8 1     
    8    3    9 2     
    9    4   10 1     
   10    4   11 2     
   11    5   12 1     
   12    5   18 1     
   13    5   19 1     
   14    6   13 ar    
   15    6   20 1     
   16    7   14 ar    
   17    7   21 1     
   18    8   15 1     
   19    8   22 1     
   20   10   15 1     
   21   10   23 1     
   22   12   24 1     
   23   12   25 1     
   24   12   26 1     
   25   13   16 ar    
   26   13   27 1     
   27   14   16 ar    
   28   14   28 1     
   29   15   17 2     
   30   16   29 1     
@<TRIPOS>SUBSTRUCTURE
      1 RES1           1
@<TRIPOS>SET
DONOR_HYDROGENS      STATIC     ATOMS    <user>   **** ""
2 22 23
ATOM$RED        STATIC     ATOMS    COLORGROUP SYSTEM
2 22 23
@<TRIPOS>COMMENT
> <Gold.Version>
2022.3.0

> <Gold.Id.Protein>
unknown|4d1n_clean|pdb

> <Gold.Protein.RotatedTorsions>
[ 9571 9508 9507 9505 ] final -153.13 input   60.00 | X-H torsion
[ 7907 7874 7873 7870 ] final   45.16 input   60.00 | X-H torsion

> <Gold.Protein.ActiveResidues>
 ASP403  THR404  ILE407  TYR408  ALA410  LYS411  TRP414  GLN425  TRP426  SER427 
 LYS428  LEU429  GLN430  VAL431  PHE432  ASP433  TYR453  SER462  ALA463  ILE464 

> <Gold.Protein.RotatedAtoms>
  204.9561   51.1222   61.9686 H   0  0  0  0  0  0  0  0  0  0  0  0  # atno 7907 bound_to 7874
  207.9147   51.0882   73.0046 H   0  0  0  0  0  0  0  0  0  0  0  0  # atno 9571 bound_to 9508
  209.1528   52.1070   72.7268 LP  0  0  0  0  0  0  0  0  0  0  0  0  # atno 27207 bound_to 9508
  207.9789   52.5139   73.7865 LP  0  0  0  0  0  0  0  0  0  0  0  0  # atno 27208 bound_to 9508
  204.5811   50.1726   60.7018 LP  0  0  0  0  0  0  0  0  0  0  0  0  # atno 27219 bound_to 7874
  204.9625   51.7426   60.4645 LP  0  0  0  0  0  0  0  0  0  0  0  0  # atno 27220 bound_to 7874

> <Gold.Score>
     Fitness  S(hb_ext) S(vdw_ext)  S(hb_int)    S(int)      intcor
     19.09       0.29      14.76       0.00      -1.50      -0.77

> <Gold.Goldscore.Fitness>
19.0920

> <Gold.Goldscore.Internal.Vdw>
-1.3129

> <Gold.Goldscore.Internal.Torsion>
-0.9499

> <Gold.Goldscore.External.Vdw>
14.7622

> <Gold.Goldscore.Internal.HBond>
0.0000

> <Gold.Goldscore.External.HBond>
0.2914

> <Gold.Goldscore.Internal.Correction>
-0.7653

> <Gold.Goldscore.Hbonds>
donor molecule, donor type, donor heavy atom, donor atom, acceptor molecule, acceptor atom, score
      P1  H  8001  8055       L1     9  0.03
      P1  H  8084  8133       L1    11  0.03
      P1  H  8145  8191       L1    17  0.08

> <Gold.Goldscore.Internal.Vdw.Weighted>
-1.3129

> <Gold.Goldscore.Internal.Torsion.Weighted>
-0.9499

> <Gold.Goldscore.External.Vdw.Weighted>
20.2981

> <Gold.Goldscore.Internal.HBond.Weighted>
0.0000

> <Gold.Goldscore.External.HBond.Weighted>
0.2914

> <Gold.Goldscore.Internal.Correction.Weighted>
-0.7653

> <Gold.Rescore>
     Score     S(PLP)   S(hbond)     S(cho)   S(metal)  DE(clash)   DE(tors)     intcor
     17.58     -13.97       2.07       0.00       0.00       0.40       1.10       ----

> <Gold.PLP.Fitness>
17.5836

> <Gold.PLP.PLP>
-13.9679

> <Gold.PLP.part.hbond>
-3.9736

> <Gold.PLP.part.metal>
0.0000

> <Gold.PLP.part.buried>
-0.4995

> <Gold.PLP.part.nonpolar>
-11.2493

> <Gold.PLP.part.repulsive>
1.8467

> <Gold.PLP.ligand.clash>
0.3965

> <Gold.PLP.ligand.torsion>
1.1046

> <Gold.PLP.Chemscore.Hbond>
2.0738

> <Gold.PLP.Chemscore.CHOScore>
0.0000

> <Gold.PLP.Chemscore.Metal>
0.0000

> <Gold.Chemscore.Hbonds>
donor molecule, donor type, donor heavy atom, donor atom, acceptor molecule, acceptor atom, score
      P1  H  6785  6850       L1     9  0.01
      P1  H  8001  8055       L1     9  0.19
      P1  H  8084  8133       L1    11  0.60
      P1  H  8145  8191       L1    17  0.86

> <Gold.PLP.Chemscore.Internal.Correction>
   9.000000E+99

#       Name:                CT1002167954
#       Creating user name   hitesit
#       Creation time:       Sun Apr 16 22:54:42 2023


#       File generated by GOLD software.
#

@<TRIPOS>MOLECULE
CT1002167954|ligand_prepared|mol2|1|dock10
    29    30     1
SMALL
NO_CHARGES


@<TRIPOS>ATOM
      1 C1         216.3361  55.4251  71.7544 C.3            1 RES1               0.0000
      2 C2         215.9080  55.2492  73.2256 C.ar           1 RES1               0.0000
      3 C3         216.5244  54.0192  71.1920 C.2            1 RES1               0.0000
      4 C4         215.2252  56.2216  71.0791 C.2            1 RES1               0.0000
      5 C5         217.6592  56.2060  71.5777 C.3            1 RES1               0.0000
      6 C6         216.8596  55.2063  74.2402 C.ar           1 RES1               0.0000
      7 C7         214.5676  55.1315  73.5834 C.ar           1 RES1               0.0000
      8 N8         215.5744  53.5496  70.3335 N.am           1 RES1               0.0000
      9 O9         217.4712  53.3183  71.5274 O.2            1 RES1               0.0000
     10 N10        214.4925  55.6003  70.1019 N.am           1 RES1               0.0000
     11 O11        214.9668  57.3762  71.3960 O.2            1 RES1               0.0000
     12 C12        217.9282  56.6404  70.1455 C.3            1 RES1               0.0000
     13 C13        216.4846  55.0542  75.5648 C.ar           1 RES1               0.0000
     14 C14        214.1948  54.9793  74.9087 C.ar           1 RES1               0.0000
     15 C15        214.5966  54.2906  69.7199 C.2            1 RES1               0.0000
     16 C16        215.1522  54.9410  75.9000 C.ar           1 RES1               0.0000
     17 O17        213.8647  53.7894  68.8712 O.2            1 RES1               0.0000
     18 H18        217.6317  57.0966  72.2176 H              1 RES1               0.0000
     19 H19        218.4898  55.5749  71.9170 H              1 RES1               0.0000
     20 H20        217.9131  55.2913  73.9954 H              1 RES1               0.0000
     21 H21        213.7972  55.1578  72.8202 H              1 RES1               0.0000
     22 H22        215.5927  52.5555  70.1289 H              1 RES1               0.0000
     23 H23        213.8060  56.1668  69.6139 H              1 RES1               0.0000
     24 H24        218.8682  57.1839  70.0774 H              1 RES1               0.0000
     25 H25        217.9870  55.7776  69.4853 H              1 RES1               0.0000
     26 H26        217.1340  57.2903  69.7840 H              1 RES1               0.0000
     27 H27        217.2421  55.0233  76.3411 H              1 RES1               0.0000
     28 H28        213.1450  54.8900  75.1678 H              1 RES1               0.0000
     29 H29        214.8587  54.8223  76.9378 H              1 RES1               0.0000
@<TRIPOS>BOND
    1    1    2 1     
    2    1    3 1     
    3    1    4 1     
    4    1    5 1     
    5    2    6 ar    
    6    2    7 ar    
    7    3    8 1     
    8    3    9 2     
    9    4   10 1     
   10    4   11 2     
   11    5   12 1     
   12    5   18 1     
   13    5   19 1     
   14    6   13 ar    
   15    6   20 1     
   16    7   14 ar    
   17    7   21 1     
   18    8   15 1     
   19    8   22 1     
   20   10   15 1     
   21   10   23 1     
   22   12   24 1     
   23   12   25 1     
   24   12   26 1     
   25   13   16 ar    
   26   13   27 1     
   27   14   16 ar    
   28   14   28 1     
   29   15   17 2     
   30   16   29 1     
@<TRIPOS>SUBSTRUCTURE
      1 RES1           1
@<TRIPOS>SET
DONOR_HYDROGENS      STATIC     ATOMS    <user>   **** ""
2 22 23
ATOM$RED        STATIC     ATOMS    COLORGROUP SYSTEM
2 22 23
@<TRIPOS>COMMENT
> <Gold.Version>
2022.3.0

> <Gold.Id.Protein>
unknown|4d1n_clean|pdb

> <Gold.Protein.RotatedTorsions>
[ 9571 9508 9507 9505 ] final -130.09 input   60.00 | X-H torsion
[ 7907 7874 7873 7870 ] final   54.39 input   60.00 | X-H torsion

> <Gold.Protein.ActiveResidues>
 ASP403  THR404  ILE407  TYR408  ALA410  LYS411  TRP414  GLN425  TRP426  SER427 
 LYS428  LEU429  GLN430  VAL431  PHE432  ASP433  TYR453  SER462  ALA463  ILE464 

> <Gold.Protein.RotatedAtoms>
  204.9896   51.2652   61.9348 H   0  0  0  0  0  0  0  0  0  0  0  0  # atno 7907 bound_to 7874
  207.6860   51.2443   73.2558 H   0  0  0  0  0  0  0  0  0  0  0  0  # atno 9571 bound_to 9508
  209.0730   51.7675   72.5849 LP  0  0  0  0  0  0  0  0  0  0  0  0  # atno 27207 bound_to 9508
  208.2889   52.6963   73.6754 LP  0  0  0  0  0  0  0  0  0  0  0  0  # atno 27208 bound_to 9508
  204.5837   50.1261   60.8462 LP  0  0  0  0  0  0  0  0  0  0  0  0  # atno 27219 bound_to 7874
  204.9262   51.6450   60.3540 LP  0  0  0  0  0  0  0  0  0  0  0  0  # atno 27220 bound_to 7874

> <Gold.Score>
     Fitness  S(hb_ext) S(vdw_ext)  S(hb_int)    S(int)      intcor
     14.86       1.82       9.90       0.00      -0.58      -0.77

> <Gold.Goldscore.Fitness>
14.8561

> <Gold.Goldscore.Internal.Vdw>
-0.7437

> <Gold.Goldscore.Internal.Torsion>
-0.6049

> <Gold.Goldscore.External.Vdw>
9.9015

> <Gold.Goldscore.Internal.HBond>
0.0000

> <Gold.Goldscore.External.HBond>
1.8249

> <Gold.Goldscore.Internal.Correction>
-0.7653

> <Gold.Goldscore.Hbonds>
donor molecule, donor type, donor heavy atom, donor atom, acceptor molecule, acceptor atom, score
      P1  H  8145  8191       L1    17  0.46
      P1  H  8289  8329       L1     9  0.11
      L1  H     8    22       P1  8148  0.34

> <Gold.Goldscore.Internal.Vdw.Weighted>
-0.7437

> <Gold.Goldscore.Internal.Torsion.Weighted>
-0.6049

> <Gold.Goldscore.External.Vdw.Weighted>
13.6146

> <Gold.Goldscore.Internal.HBond.Weighted>
0.0000

> <Gold.Goldscore.External.HBond.Weighted>
1.8249

> <Gold.Goldscore.Internal.Correction.Weighted>
-0.7653

> <Gold.Rescore>
     Score     S(PLP)   S(hbond)     S(cho)   S(metal)  DE(clash)   DE(tors)     intcor
     14.97     -14.32       1.00       0.00       0.00       0.00       1.18       ----

> <Gold.PLP.Fitness>
14.9682

> <Gold.PLP.PLP>
-14.3246

> <Gold.PLP.part.hbond>
-1.2225

> <Gold.PLP.part.metal>
0.0000

> <Gold.PLP.part.buried>
-1.9449

> <Gold.PLP.part.nonpolar>
-11.5304

> <Gold.PLP.part.repulsive>
0.3053

> <Gold.PLP.ligand.clash>
0.0000

> <Gold.PLP.ligand.torsion>
1.1782

> <Gold.PLP.Chemscore.Hbond>
1.0000

> <Gold.PLP.Chemscore.CHOScore>
0.0000

> <Gold.PLP.Chemscore.Metal>
0.0000

> <Gold.Chemscore.Hbonds>
donor molecule, donor type, donor heavy atom, donor atom, acceptor molecule, acceptor atom, score
      L1  H     8    22       P1  8148  0.39
      P1  H  8145  8191       L1    17  0.10

> <Gold.PLP.Chemscore.Internal.Correction>
   9.000000E+99

