#       Name:                CT1002167954
#       Creating user name   hitesit
#       Creation time:       Sun Apr 16 22:54:42 2023


#       File generated by GOLD software.
#

@<TRIPOS>MOLECULE
CT1002167954|ligand_prepared|mol2|1|dock9
    29    30     1
SMALL
NO_CHARGES


@<TRIPOS>ATOM
      1 C1         206.7915  52.5155  69.8135 C.3            1 RES1               0.0000
      2 C2         206.2678  53.8001  70.4874 C.ar           1 RES1               0.0000
      3 C3         206.2735  52.5427  68.3785 C.2            1 RES1               0.0000
      4 C4         208.3112  52.5632  69.9273 C.2            1 RES1               0.0000
      5 C5         206.3026  51.2124  70.4876 C.3            1 RES1               0.0000
      6 C6         206.9876  54.9882  70.4037 C.ar           1 RES1               0.0000
      7 C7         205.0673  53.8133  71.1926 C.ar           1 RES1               0.0000
      8 N8         207.1686  52.8244  67.3889 N.am           1 RES1               0.0000
      9 O9         205.0898  52.3588  68.1228 O.2            1 RES1               0.0000
     10 N10        209.0384  52.6761  68.7714 N.am           1 RES1               0.0000
     11 O11        208.8848  52.5207  71.0088 O.2            1 RES1               0.0000
     12 C12        207.1661  50.0000  70.1768 C.3            1 RES1               0.0000
     13 C13        206.5228  56.1483  71.0009 C.ar           1 RES1               0.0000
     14 C14        204.6044  54.9745  71.7893 C.ar           1 RES1               0.0000
     15 C15        208.5349  52.8398  67.5097 C.2            1 RES1               0.0000
     16 C16        205.3309  56.1423  71.6936 C.ar           1 RES1               0.0000
     17 O17        209.2534  52.9895  66.5256 O.2            1 RES1               0.0000
     18 H18        206.2829  51.3628  71.5740 H              1 RES1               0.0000
     19 H19        205.2761  51.0084  70.1587 H              1 RES1               0.0000
     20 H20        207.9289  55.0116  69.8649 H              1 RES1               0.0000
     21 H21        204.4796  52.9060  71.2818 H              1 RES1               0.0000
     22 H22        206.7867  53.0441  66.4744 H              1 RES1               0.0000
     23 H23        210.0488  52.6340  68.8597 H              1 RES1               0.0000
     24 H24        206.7791  49.1131  70.6742 H              1 RES1               0.0000
     25 H25        207.1877  49.8060  69.1064 H              1 RES1               0.0000
     26 H26        208.1886  50.1583  70.5134 H              1 RES1               0.0000
     27 H27        207.0989  57.0644  70.9239 H              1 RES1               0.0000
     28 H28        203.6661  54.9650  72.3340 H              1 RES1               0.0000
     29 H29        204.9668  57.0513  72.1610 H              1 RES1               0.0000
@<TRIPOS>BOND
    1    1    2 1     
    2    1    3 1     
    3    1    4 1     
    4    1    5 1     
    5    2    6 ar    
    6    2    7 ar    
    7    3    8 1     
    8    3    9 2     
    9    4   10 1     
   10    4   11 2     
   11    5   12 1     
   12    5   18 1     
   13    5   19 1     
   14    6   13 ar    
   15    6   20 1     
   16    7   14 ar    
   17    7   21 1     
   18    8   15 1     
   19    8   22 1     
   20   10   15 1     
   21   10   23 1     
   22   12   24 1     
   23   12   25 1     
   24   12   26 1     
   25   13   16 ar    
   26   13   27 1     
   27   14   16 ar    
   28   14   28 1     
   29   15   17 2     
   30   16   29 1     
@<TRIPOS>SUBSTRUCTURE
      1 RES1           1
@<TRIPOS>SET
DONOR_HYDROGENS      STATIC     ATOMS    <user>   **** ""
2 22 23
ATOM$RED        STATIC     ATOMS    COLORGROUP SYSTEM
2 22 23
@<TRIPOS>COMMENT
> <Gold.Version>
2022.3.0

> <Gold.Id.Protein>
unknown|4d1n_clean|pdb

> <Gold.Protein.RotatedTorsions>
[ 9571 9508 9507 9505 ] final  179.49 input   60.00 | X-H torsion
[ 7907 7874 7873 7870 ] final  161.61 input   60.00 | X-H torsion

> <Gold.Protein.ActiveResidues>
 ASP403  THR404  ILE407  TYR408  ALA410  LYS411  TRP414  GLN425  TRP426  SER427 
 LYS428  LEU429  GLN430  VAL431  PHE432  ASP433  TYR453  SER462  ALA463  ILE464 

> <Gold.Protein.RotatedAtoms>
  204.9768   51.7689   60.5148 H   0  0  0  0  0  0  0  0  0  0  0  0  # atno 7907 bound_to 7874
  208.2729   51.0719   72.7441 H   0  0  0  0  0  0  0  0  0  0  0  0  # atno 9571 bound_to 9508
  209.0808   52.4638   72.9851 LP  0  0  0  0  0  0  0  0  0  0  0  0  # atno 27207 bound_to 9508
  207.6902   52.1735   73.7905 LP  0  0  0  0  0  0  0  0  0  0  0  0  # atno 27208 bound_to 9508
  204.9409   51.0673   61.9823 LP  0  0  0  0  0  0  0  0  0  0  0  0  # atno 27219 bound_to 7874
  204.5819   50.1962   60.6486 LP  0  0  0  0  0  0  0  0  0  0  0  0  # atno 27220 bound_to 7874

> <Gold.Score>
     Fitness  S(hb_ext) S(vdw_ext)  S(hb_int)    S(int)      intcor
     23.94       1.41      17.30       0.00      -1.24      -0.77

> <Gold.Goldscore.Fitness>
23.9444

> <Gold.Goldscore.Internal.Vdw>
-1.0252

> <Gold.Goldscore.Internal.Torsion>
-0.9850

> <Gold.Goldscore.External.Vdw>
17.2957

> <Gold.Goldscore.Internal.HBond>
0.0000

> <Gold.Goldscore.External.HBond>
1.4077

> <Gold.Goldscore.Internal.Correction>
-0.7653

> <Gold.Goldscore.Hbonds>
donor molecule, donor type, donor heavy atom, donor atom, acceptor molecule, acceptor atom, score
      P1  H  8001  8055       L1    17  0.02
      P1  H  8084  8134       L1    11  0.68

> <Gold.Goldscore.Internal.Vdw.Weighted>
-1.0252

> <Gold.Goldscore.Internal.Torsion.Weighted>
-0.9850

> <Gold.Goldscore.External.Vdw.Weighted>
23.7816

> <Gold.Goldscore.Internal.HBond.Weighted>
0.0000

> <Gold.Goldscore.External.HBond.Weighted>
1.4077

> <Gold.Goldscore.Internal.Correction.Weighted>
-0.7653

> <Gold.Rescore>
     Score     S(PLP)   S(hbond)     S(cho)   S(metal)  DE(clash)   DE(tors)     intcor
     20.84     -17.26       1.95       0.00       0.00       0.00       1.13       ----

> <Gold.PLP.Fitness>
20.8407

> <Gold.PLP.PLP>
-17.2579

> <Gold.PLP.part.hbond>
-3.2700

> <Gold.PLP.part.metal>
0.0000

> <Gold.PLP.part.buried>
-3.3690

> <Gold.PLP.part.nonpolar>
-12.3706

> <Gold.PLP.part.repulsive>
0.4925

> <Gold.PLP.ligand.clash>
0.0000

> <Gold.PLP.ligand.torsion>
1.1306

> <Gold.PLP.Chemscore.Hbond>
1.9480

> <Gold.PLP.Chemscore.CHOScore>
0.0000

> <Gold.PLP.Chemscore.Metal>
0.0000

> <Gold.Chemscore.Hbonds>
donor molecule, donor type, donor heavy atom, donor atom, acceptor molecule, acceptor atom, score
      P1  H  8084  8134       L1    11  0.47

> <Gold.PLP.Chemscore.Internal.Correction>
   9.000000E+99

