#       Name:                CT1002167954
#       Creating user name   hitesit
#       Creation time:       Sun Apr 16 22:54:41 2023


#       File generated by GOLD software.
#

@<TRIPOS>MOLECULE
CT1002167954|ligand_prepared|mol2|1|dock7
    29    30     1
SMALL
NO_CHARGES


@<TRIPOS>ATOM
      1 C1         209.6500  54.2587  67.7665 C.3            1 RES1               0.0000
      2 C2         209.4080  55.5462  66.9527 C.ar           1 RES1               0.0000
      3 C3         210.0137  53.1749  66.7558 C.2            1 RES1               0.0000
      4 C4         210.7621  54.5833  68.7578 C.2            1 RES1               0.0000
      5 C5         208.4162  53.7865  68.5704 C.3            1 RES1               0.0000
      6 C6         210.0694  55.7570  65.7465 C.ar           1 RES1               0.0000
      7 C7         208.5259  56.5294  67.3930 C.ar           1 RES1               0.0000
      8 N8         211.3177  52.7803  66.6943 N.am           1 RES1               0.0000
      9 O9         209.1766  52.7021  65.9969 O.2            1 RES1               0.0000
     10 N10        211.9588  53.9308  68.6166 N.am           1 RES1               0.0000
     11 O11        210.6183  55.4104  69.6497 O.2            1 RES1               0.0000
     12 C12        208.4728  52.3223  68.9767 C.3            1 RES1               0.0000
     13 C13        209.8546  56.9074  65.0058 C.ar           1 RES1               0.0000
     14 C14        208.3127  57.6793  66.6509 C.ar           1 RES1               0.0000
     15 C15        212.2971  53.0666  67.6111 C.2            1 RES1               0.0000
     16 C16        208.9759  57.8690  65.4572 C.ar           1 RES1               0.0000
     17 O17        213.4123  52.5614  67.5211 O.2            1 RES1               0.0000
     18 H18        208.3279  54.4007  69.4750 H              1 RES1               0.0000
     19 H19        207.5163  53.9502  67.9648 H              1 RES1               0.0000
     20 H20        210.7665  55.0125  65.3765 H              1 RES1               0.0000
     21 H21        207.9939  56.4019  68.3297 H              1 RES1               0.0000
     22 H22        211.5898  52.2205  65.8925 H              1 RES1               0.0000
     23 H23        212.6625  54.1054  69.3269 H              1 RES1               0.0000
     24 H24        207.5835  52.0430  69.5379 H              1 RES1               0.0000
     25 H25        208.5356  51.6808  68.1001 H              1 RES1               0.0000
     26 H26        209.3424  52.1287  69.6014 H              1 RES1               0.0000
     27 H27        210.3801  57.0526  64.0677 H              1 RES1               0.0000
     28 H28        207.6207  58.4337  67.0103 H              1 RES1               0.0000
     29 H29        208.8075  58.7700  64.8766 H              1 RES1               0.0000
@<TRIPOS>BOND
    1    1    2 1     
    2    1    3 1     
    3    1    4 1     
    4    1    5 1     
    5    2    6 ar    
    6    2    7 ar    
    7    3    8 1     
    8    3    9 2     
    9    4   10 1     
   10    4   11 2     
   11    5   12 1     
   12    5   18 1     
   13    5   19 1     
   14    6   13 ar    
   15    6   20 1     
   16    7   14 ar    
   17    7   21 1     
   18    8   15 1     
   19    8   22 1     
   20   10   15 1     
   21   10   23 1     
   22   12   24 1     
   23   12   25 1     
   24   12   26 1     
   25   13   16 ar    
   26   13   27 1     
   27   14   16 ar    
   28   14   28 1     
   29   15   17 2     
   30   16   29 1     
@<TRIPOS>SUBSTRUCTURE
      1 RES1           1
@<TRIPOS>SET
DONOR_HYDROGENS      STATIC     ATOMS    <user>   **** ""
2 22 23
ATOM$RED        STATIC     ATOMS    COLORGROUP SYSTEM
2 22 23
@<TRIPOS>COMMENT
> <Gold.Version>
2022.3.0

> <Gold.Id.Protein>
unknown|4d1n_clean|pdb

> <Gold.Protein.RotatedTorsions>
[ 9571 9508 9507 9505 ] final -153.13 input   60.00 | X-H torsion
[ 7907 7874 7873 7870 ] final   45.16 input   60.00 | X-H torsion

> <Gold.Protein.ActiveResidues>
 ASP403  THR404  ILE407  TYR408  ALA410  LYS411  TRP414  GLN425  TRP426  SER427 
 LYS428  LEU429  GLN430  VAL431  PHE432  ASP433  TYR453  SER462  ALA463  ILE464 

> <Gold.Protein.RotatedAtoms>
  204.9561   51.1222   61.9686 H   0  0  0  0  0  0  0  0  0  0  0  0  # atno 7907 bound_to 7874
  207.9147   51.0882   73.0046 H   0  0  0  0  0  0  0  0  0  0  0  0  # atno 9571 bound_to 9508
  209.1528   52.1070   72.7268 LP  0  0  0  0  0  0  0  0  0  0  0  0  # atno 27207 bound_to 9508
  207.9789   52.5139   73.7865 LP  0  0  0  0  0  0  0  0  0  0  0  0  # atno 27208 bound_to 9508
  204.5811   50.1726   60.7018 LP  0  0  0  0  0  0  0  0  0  0  0  0  # atno 27219 bound_to 7874
  204.9625   51.7426   60.4645 LP  0  0  0  0  0  0  0  0  0  0  0  0  # atno 27220 bound_to 7874

> <Gold.Score>
     Fitness  S(hb_ext) S(vdw_ext)  S(hb_int)    S(int)      intcor
     19.09       0.29      14.76       0.00      -1.50      -0.77

> <Gold.Goldscore.Fitness>
19.0920

> <Gold.Goldscore.Internal.Vdw>
-1.3129

> <Gold.Goldscore.Internal.Torsion>
-0.9499

> <Gold.Goldscore.External.Vdw>
14.7622

> <Gold.Goldscore.Internal.HBond>
0.0000

> <Gold.Goldscore.External.HBond>
0.2914

> <Gold.Goldscore.Internal.Correction>
-0.7653

> <Gold.Goldscore.Hbonds>
donor molecule, donor type, donor heavy atom, donor atom, acceptor molecule, acceptor atom, score
      P1  H  8001  8055       L1     9  0.03
      P1  H  8084  8133       L1    11  0.03
      P1  H  8145  8191       L1    17  0.08

> <Gold.Goldscore.Internal.Vdw.Weighted>
-1.3129

> <Gold.Goldscore.Internal.Torsion.Weighted>
-0.9499

> <Gold.Goldscore.External.Vdw.Weighted>
20.2981

> <Gold.Goldscore.Internal.HBond.Weighted>
0.0000

> <Gold.Goldscore.External.HBond.Weighted>
0.2914

> <Gold.Goldscore.Internal.Correction.Weighted>
-0.7653

> <Gold.Rescore>
     Score     S(PLP)   S(hbond)     S(cho)   S(metal)  DE(clash)   DE(tors)     intcor
     17.58     -13.97       2.07       0.00       0.00       0.40       1.10       ----

> <Gold.PLP.Fitness>
17.5836

> <Gold.PLP.PLP>
-13.9679

> <Gold.PLP.part.hbond>
-3.9736

> <Gold.PLP.part.metal>
0.0000

> <Gold.PLP.part.buried>
-0.4995

> <Gold.PLP.part.nonpolar>
-11.2493

> <Gold.PLP.part.repulsive>
1.8467

> <Gold.PLP.ligand.clash>
0.3965

> <Gold.PLP.ligand.torsion>
1.1046

> <Gold.PLP.Chemscore.Hbond>
2.0738

> <Gold.PLP.Chemscore.CHOScore>
0.0000

> <Gold.PLP.Chemscore.Metal>
0.0000

> <Gold.Chemscore.Hbonds>
donor molecule, donor type, donor heavy atom, donor atom, acceptor molecule, acceptor atom, score
      P1  H  6785  6850       L1     9  0.01
      P1  H  8001  8055       L1     9  0.19
      P1  H  8084  8133       L1    11  0.60
      P1  H  8145  8191       L1    17  0.86

> <Gold.PLP.Chemscore.Internal.Correction>
   9.000000E+99

