#       Name:                CT1002167954
#       Creating user name   hitesit
#       Creation time:       Sun Apr 16 22:54:40 2023


#       File generated by GOLD software.
#

@<TRIPOS>MOLECULE
CT1002167954|ligand_prepared|mol2|1|dock4
    29    30     1
SMALL
NO_CHARGES


@<TRIPOS>ATOM
      1 C1         209.5983  54.2687  68.0473 C.3            1 RES1               0.0000
      2 C2         208.7363  53.5696  69.1183 C.ar           1 RES1               0.0000
      3 C3         210.8705  54.7278  68.7538 C.2            1 RES1               0.0000
      4 C4         209.8340  53.2373  66.9494 C.2            1 RES1               0.0000
      5 C5         208.9200  55.5019  67.4066 C.3            1 RES1               0.0000
      6 C6         208.0692  54.3132  70.0872 C.ar           1 RES1               0.0000
      7 C7         208.5968  52.1846  69.1486 C.ar           1 RES1               0.0000
      8 N8         212.0179  54.0348  68.5026 N.am           1 RES1               0.0000
      9 O9         210.8590  55.6588  69.5496 O.2            1 RES1               0.0000
     10 N10        211.1158  52.7973  66.7463 N.am           1 RES1               0.0000
     11 O11        208.9189  52.7893  66.2696 O.2            1 RES1               0.0000
     12 C12        209.6718  56.0624  66.2096 C.3            1 RES1               0.0000
     13 C13        207.2885  53.6949  71.0498 C.ar           1 RES1               0.0000
     14 C14        207.8157  51.5683  70.1122 C.ar           1 RES1               0.0000
     15 C15        212.2138  53.1264  67.4935 C.2            1 RES1               0.0000
     16 C16        207.1608  52.3223  71.0627 C.ar           1 RES1               0.0000
     17 O17        213.3242  52.6470  67.2833 O.2            1 RES1               0.0000
     18 H18        207.9078  55.2228  67.0887 H              1 RES1               0.0000
     19 H19        208.8281  56.2885  68.1656 H              1 RES1               0.0000
     20 H20        208.1598  55.3943  70.0944 H              1 RES1               0.0000
     21 H21        209.1037  51.5712  68.4114 H              1 RES1               0.0000
     22 H22        212.8029  54.2080  69.1223 H              1 RES1               0.0000
     23 H23        211.2653  52.1660  65.9656 H              1 RES1               0.0000
     24 H24        209.1532  56.9259  65.7982 H              1 RES1               0.0000
     25 H25        210.6745  56.3736  66.4951 H              1 RES1               0.0000
     26 H26        209.7597  55.3142  65.4245 H              1 RES1               0.0000
     27 H27        206.7763  54.2927  71.7964 H              1 RES1               0.0000
     28 H28        207.7186  50.4877  70.1190 H              1 RES1               0.0000
     29 H29        206.5489  51.8382  71.8166 H              1 RES1               0.0000
@<TRIPOS>BOND
    1    1    2 1     
    2    1    3 1     
    3    1    4 1     
    4    1    5 1     
    5    2    6 ar    
    6    2    7 ar    
    7    3    8 1     
    8    3    9 2     
    9    4   10 1     
   10    4   11 2     
   11    5   12 1     
   12    5   18 1     
   13    5   19 1     
   14    6   13 ar    
   15    6   20 1     
   16    7   14 ar    
   17    7   21 1     
   18    8   15 1     
   19    8   22 1     
   20   10   15 1     
   21   10   23 1     
   22   12   24 1     
   23   12   25 1     
   24   12   26 1     
   25   13   16 ar    
   26   13   27 1     
   27   14   16 ar    
   28   14   28 1     
   29   15   17 2     
   30   16   29 1     
@<TRIPOS>SUBSTRUCTURE
      1 RES1           1
@<TRIPOS>SET
DONOR_HYDROGENS      STATIC     ATOMS    <user>   **** ""
2 22 23
ATOM$RED        STATIC     ATOMS    COLORGROUP SYSTEM
2 22 23
@<TRIPOS>COMMENT
> <Gold.Version>
2022.3.0

> <Gold.Id.Protein>
unknown|4d1n_clean|pdb

> <Gold.Protein.RotatedTorsions>
[ 9571 9508 9507 9505 ] final  127.96 input   60.00 | X-H torsion
[ 7907 7874 7873 7870 ] final  167.20 input   60.00 | X-H torsion

> <Gold.Protein.ActiveResidues>
 ASP403  THR404  ILE407  TYR408  ALA410  LYS411  TRP414  GLN425  TRP426  SER427 
 LYS428  LEU429  GLN430  VAL431  PHE432  ASP433  TYR453  SER462  ALA463  ILE464 

> <Gold.Protein.RotatedAtoms>
  204.9560   51.7167   60.4428 H   0  0  0  0  0  0  0  0  0  0  0  0  # atno 7907 bound_to 7874
  208.9257   51.5152   72.5449 H   0  0  0  0  0  0  0  0  0  0  0  0  # atno 9571 bound_to 9508
  208.5412   52.7514   73.5307 LP  0  0  0  0  0  0  0  0  0  0  0  0  # atno 27207 bound_to 9508
  207.5725   51.4396   73.4455 LP  0  0  0  0  0  0  0  0  0  0  0  0  # atno 27208 bound_to 9508
  204.9625   51.1559   61.9701 LP  0  0  0  0  0  0  0  0  0  0  0  0  # atno 27219 bound_to 7874
  204.5811   50.1603   60.7332 LP  0  0  0  0  0  0  0  0  0  0  0  0  # atno 27220 bound_to 7874

> <Gold.Score>
     Fitness  S(hb_ext) S(vdw_ext)  S(hb_int)    S(int)      intcor
     25.58       0.28      19.36       0.00      -1.33      -0.77

> <Gold.Goldscore.Fitness>
25.5773

> <Gold.Goldscore.Internal.Vdw>
-1.6158

> <Gold.Goldscore.Internal.Torsion>
-0.4869

> <Gold.Goldscore.External.Vdw>
19.3629

> <Gold.Goldscore.Internal.HBond>
0.0000

> <Gold.Goldscore.External.HBond>
0.2824

> <Gold.Goldscore.Internal.Correction>
-0.7737

> <Gold.Goldscore.Hbonds>
donor molecule, donor type, donor heavy atom, donor atom, acceptor molecule, acceptor atom, score
      P1  H  8001  8055       L1    11  0.02
      P1  H  8084  8133       L1     9  0.08
      P1  H  8145  8191       L1    17  0.05

> <Gold.Goldscore.Internal.Vdw.Weighted>
-1.6158

> <Gold.Goldscore.Internal.Torsion.Weighted>
-0.4869

> <Gold.Goldscore.External.Vdw.Weighted>
26.6240

> <Gold.Goldscore.Internal.HBond.Weighted>
0.0000

> <Gold.Goldscore.External.HBond.Weighted>
0.2824

> <Gold.Goldscore.Internal.Correction.Weighted>
-0.7737

> <Gold.Rescore>
     Score     S(PLP)   S(hbond)     S(cho)   S(metal)  DE(clash)   DE(tors)     intcor
     24.89     -20.76       2.00       0.00       0.00       1.26       0.31       ----

> <Gold.PLP.Fitness>
24.8940

> <Gold.PLP.PLP>
-20.7617

> <Gold.PLP.part.hbond>
-4.0000

> <Gold.PLP.part.metal>
0.0000

> <Gold.PLP.part.buried>
-1.4105

> <Gold.PLP.part.nonpolar>
-17.5729

> <Gold.PLP.part.repulsive>
2.1054

> <Gold.PLP.ligand.clash>
1.2578

> <Gold.PLP.ligand.torsion>
0.3064

> <Gold.PLP.Chemscore.Hbond>
2.0010

> <Gold.PLP.Chemscore.CHOScore>
0.0000

> <Gold.PLP.Chemscore.Metal>
0.0000

> <Gold.Chemscore.Hbonds>
donor molecule, donor type, donor heavy atom, donor atom, acceptor molecule, acceptor atom, score
      P1  H  8001  8055       L1    11  0.13
      P1  H  8084  8133       L1     9  0.33
      P1  H  8145  8191       L1    17  0.81

> <Gold.PLP.Chemscore.Internal.Correction>
   9.000000E+99

