#       Name:                CT1002167954
#       Creating user name   hitesit
#       Creation time:       Sun Apr 16 22:54:42 2023


#       File generated by GOLD software.
#

@<TRIPOS>MOLECULE
CT1002167954|ligand_prepared|mol2|1|dock8
    29    30     1
SMALL
NO_CHARGES


@<TRIPOS>ATOM
      1 C1         207.1702  52.8510  69.4254 C.3            1 RES1               0.0000
      2 C2         207.3627  54.1286  70.2677 C.ar           1 RES1               0.0000
      3 C3         206.1926  53.2151  68.3119 C.2            1 RES1               0.0000
      4 C4         208.5565  52.4534  68.9307 C.2            1 RES1               0.0000
      5 C5         206.5871  51.6600  70.2210 C.3            1 RES1               0.0000
      6 C6         206.5540  54.3774  71.3726 C.ar           1 RES1               0.0000
      7 C7         208.3446  55.0647  69.9543 C.ar           1 RES1               0.0000
      8 N8         206.6955  53.3637  67.0530 N.am           1 RES1               0.0000
      9 O9         205.0050  53.4078  68.5419 O.2            1 RES1               0.0000
     10 N10        208.7984  52.5111  67.5831 N.am           1 RES1               0.0000
     11 O11        209.4467  52.1066  69.6972 O.2            1 RES1               0.0000
     12 C12        206.7877  50.3134  69.5440 C.3            1 RES1               0.0000
     13 C13        206.7226  55.5192  72.1383 C.ar           1 RES1               0.0000
     14 C14        208.5114  56.2060  70.7212 C.ar           1 RES1               0.0000
     15 C15        207.9402  52.9776  66.6248 C.2            1 RES1               0.0000
     16 C16        207.7016  56.4339  71.8135 C.ar           1 RES1               0.0000
     17 O17        208.2497  53.0496  65.4390 O.2            1 RES1               0.0000
     18 H18        207.0594  51.6315  71.2107 H              1 RES1               0.0000
     19 H19        205.5125  51.8252  70.3669 H              1 RES1               0.0000
     20 H20        205.7767  53.6702  71.6421 H              1 RES1               0.0000
     21 H21        208.9925  54.9068  69.0988 H              1 RES1               0.0000
     22 H22        206.0903  53.8026  66.3664 H              1 RES1               0.0000
     23 H23        209.7017  52.1750  67.2648 H              1 RES1               0.0000
     24 H24        206.3603  49.5126  70.1438 H              1 RES1               0.0000
     25 H25        206.3090  50.2976  68.5671 H              1 RES1               0.0000
     26 H26        207.8467  50.1051  69.4059 H              1 RES1               0.0000
     27 H27        206.0818  55.6945  72.9961 H              1 RES1               0.0000
     28 H28        209.2828  56.9235  70.4616 H              1 RES1               0.0000
     29 H29        207.8338  57.3280  72.4137 H              1 RES1               0.0000
@<TRIPOS>BOND
    1    1    2 1     
    2    1    3 1     
    3    1    4 1     
    4    1    5 1     
    5    2    6 ar    
    6    2    7 ar    
    7    3    8 1     
    8    3    9 2     
    9    4   10 1     
   10    4   11 2     
   11    5   12 1     
   12    5   18 1     
   13    5   19 1     
   14    6   13 ar    
   15    6   20 1     
   16    7   14 ar    
   17    7   21 1     
   18    8   15 1     
   19    8   22 1     
   20   10   15 1     
   21   10   23 1     
   22   12   24 1     
   23   12   25 1     
   24   12   26 1     
   25   13   16 ar    
   26   13   27 1     
   27   14   16 ar    
   28   14   28 1     
   29   15   17 2     
   30   16   29 1     
@<TRIPOS>SUBSTRUCTURE
      1 RES1           1
@<TRIPOS>SET
DONOR_HYDROGENS      STATIC     ATOMS    <user>   **** ""
2 22 23
ATOM$RED        STATIC     ATOMS    COLORGROUP SYSTEM
2 22 23
@<TRIPOS>COMMENT
> <Gold.Version>
2022.3.0

> <Gold.Id.Protein>
unknown|4d1n_clean|pdb

> <Gold.Protein.RotatedTorsions>
[ 9571 9508 9507 9505 ] final   73.13 input   60.00 | X-H torsion
[ 7907 7874 7873 7870 ] final  -99.85 input   60.00 | X-H torsion

> <Gold.Protein.ActiveResidues>
 ASP403  THR404  ILE407  TYR408  ALA410  LYS411  TRP414  GLN425  TRP426  SER427 
 LYS428  LEU429  GLN430  VAL431  PHE432  ASP433  TYR453  SER462  ALA463  ILE464 

> <Gold.Protein.RotatedAtoms>
  204.6105   50.4063   60.3702 H   0  0  0  0  0  0  0  0  0  0  0  0  # atno 7907 bound_to 7874
  209.1350   52.2933   72.8514 H   0  0  0  0  0  0  0  0  0  0  0  0  # atno 9571 bound_to 9508
  207.8191   52.3561   73.8065 LP  0  0  0  0  0  0  0  0  0  0  0  0  # atno 27207 bound_to 9508
  208.0837   51.0513   72.8610 LP  0  0  0  0  0  0  0  0  0  0  0  0  # atno 27208 bound_to 9508
  205.0415   51.9063   60.8301 LP  0  0  0  0  0  0  0  0  0  0  0  0  # atno 27219 bound_to 7874
  204.8502   50.7301   61.9465 LP  0  0  0  0  0  0  0  0  0  0  0  0  # atno 27220 bound_to 7874

> <Gold.Score>
     Fitness  S(hb_ext) S(vdw_ext)  S(hb_int)    S(int)      intcor
     25.27       0.16      18.89       0.00      -0.87      -0.77

> <Gold.Goldscore.Fitness>
25.2672

> <Gold.Goldscore.Internal.Vdw>
-0.7996

> <Gold.Goldscore.Internal.Torsion>
-0.8309

> <Gold.Goldscore.External.Vdw>
18.8857

> <Gold.Goldscore.Internal.HBond>
0.0000

> <Gold.Goldscore.External.HBond>
0.1645

> <Gold.Goldscore.Internal.Correction>
-0.7653

> <Gold.Goldscore.Hbonds>
donor molecule, donor type, donor heavy atom, donor atom, acceptor molecule, acceptor atom, score
      P1  H  8001  8055       L1    17  0.05
      P1  H  8084  8134       L1    11  0.01
      L1  H    10    23       P1  8004  0.02

> <Gold.Goldscore.Internal.Vdw.Weighted>
-0.7996

> <Gold.Goldscore.Internal.Torsion.Weighted>
-0.8309

> <Gold.Goldscore.External.Vdw.Weighted>
25.9678

> <Gold.Goldscore.Internal.HBond.Weighted>
0.0000

> <Gold.Goldscore.External.HBond.Weighted>
0.1645

> <Gold.Goldscore.Internal.Correction.Weighted>
-0.7653

> <Gold.Rescore>
     Score     S(PLP)   S(hbond)     S(cho)   S(metal)  DE(clash)   DE(tors)     intcor
     20.96     -18.89       1.43       0.00       0.00       0.00       1.10       ----

> <Gold.PLP.Fitness>
20.9627

> <Gold.PLP.PLP>
-18.8931

> <Gold.PLP.part.hbond>
-3.9544

> <Gold.PLP.part.metal>
0.0000

> <Gold.PLP.part.buried>
-3.4849

> <Gold.PLP.part.nonpolar>
-12.5837

> <Gold.PLP.part.repulsive>
0.9363

> <Gold.PLP.ligand.clash>
0.0000

> <Gold.PLP.ligand.torsion>
1.1044

> <Gold.PLP.Chemscore.Hbond>
1.4261

> <Gold.PLP.Chemscore.CHOScore>
0.0000

> <Gold.PLP.Chemscore.Metal>
0.0000

> <Gold.Chemscore.Hbonds>
donor molecule, donor type, donor heavy atom, donor atom, acceptor molecule, acceptor atom, score
      L1  H    10    23       P1  8004  0.80
      P1  H  6785  6849       L1    17  0.14
      P1  H  8084  8134       L1    11  0.50

> <Gold.PLP.Chemscore.Internal.Correction>
   9.000000E+99

