#       Name:                CT1002167954
#       Creating user name   hitesit
#       Creation time:       Sun Apr 16 22:54:38 2023


#       File generated by GOLD software.
#

@<TRIPOS>MOLECULE
CT1002167954|ligand_prepared|mol2|1|dock1
    29    30     1
SMALL
NO_CHARGES


@<TRIPOS>ATOM
      1 C1         206.7359  52.8848  69.5596 C.3            1 RES1               0.0000
      2 C2         205.9562  51.6213  69.9773 C.ar           1 RES1               0.0000
      3 C3         208.2071  52.4829  69.5084 C.2            1 RES1               0.0000
      4 C4         206.1615  53.3155  68.2146 C.2            1 RES1               0.0000
      5 C5         206.5837  54.0671  70.5448 C.3            1 RES1               0.0000
      6 C6         206.1583  50.4132  69.3167 C.ar           1 RES1               0.0000
      7 C7         205.0350  51.6476  71.0210 C.ar           1 RES1               0.0000
      8 N8         208.7794  52.3358  68.2794 N.am           1 RES1               0.0000
      9 O9         208.8445  52.2600  70.5303 O.2            1 RES1               0.0000
     10 N10        206.9793  53.2511  67.1169 N.am           1 RES1               0.0000
     11 O11        205.0031  53.6942  68.0925 O.2            1 RES1               0.0000
     12 C12        207.3610  55.3088  70.1371 C.3            1 RES1               0.0000
     13 C13        205.4669  49.2720  69.6880 C.ar           1 RES1               0.0000
     14 C14        204.3445  50.5052  71.3906 C.ar           1 RES1               0.0000
     15 C15        208.2527  52.7517  67.0830 C.2            1 RES1               0.0000
     16 C16        204.5599  49.3171  70.7253 C.ar           1 RES1               0.0000
     17 O17        208.9058  52.6765  66.0462 O.2            1 RES1               0.0000
     18 H18        205.5207  54.3261  70.6240 H              1 RES1               0.0000
     19 H19        206.9255  53.7465  71.5367 H              1 RES1               0.0000
     20 H20        206.8662  50.3590  68.4964 H              1 RES1               0.0000
     21 H21        204.8486  52.5715  71.5579 H              1 RES1               0.0000
     22 H22        209.6826  51.8737  68.2467 H              1 RES1               0.0000
     23 H23        206.6040  53.6088  66.2442 H              1 RES1               0.0000
     24 H24        207.2196  56.1076  70.8621 H              1 RES1               0.0000
     25 H25        208.4256  55.0938  70.0732 H              1 RES1               0.0000
     26 H26        207.0291  55.6699  69.1659 H              1 RES1               0.0000
     27 H27        205.6390  48.3397  69.1603 H              1 RES1               0.0000
     28 H28        203.6312  50.5455  72.2072 H              1 RES1               0.0000
     29 H29        204.0187  48.4228  71.0162 H              1 RES1               0.0000
@<TRIPOS>BOND
    1    1    2 1     
    2    1    3 1     
    3    1    4 1     
    4    1    5 1     
    5    2    6 ar    
    6    2    7 ar    
    7    3    8 1     
    8    3    9 2     
    9    4   10 1     
   10    4   11 2     
   11    5   12 1     
   12    5   18 1     
   13    5   19 1     
   14    6   13 ar    
   15    6   20 1     
   16    7   14 ar    
   17    7   21 1     
   18    8   15 1     
   19    8   22 1     
   20   10   15 1     
   21   10   23 1     
   22   12   24 1     
   23   12   25 1     
   24   12   26 1     
   25   13   16 ar    
   26   13   27 1     
   27   14   16 ar    
   28   14   28 1     
   29   15   17 2     
   30   16   29 1     
@<TRIPOS>SUBSTRUCTURE
      1 RES1           1
@<TRIPOS>SET
DONOR_HYDROGENS      STATIC     ATOMS    <user>   **** ""
2 22 23
ATOM$RED        STATIC     ATOMS    COLORGROUP SYSTEM
2 22 23
@<TRIPOS>COMMENT
> <Gold.Version>
2022.3.0

> <Gold.Id.Protein>
unknown|4d1n_clean|pdb

> <Gold.Protein.RotatedTorsions>
[ 9571 9508 9507 9505 ] final -151.20 input   60.00 | X-H torsion
[ 7907 7874 7873 7870 ] final  150.79 input   60.00 | X-H torsion

> <Gold.Protein.ActiveResidues>
 ASP403  THR404  ILE407  TYR408  ALA410  LYS411  TRP414  GLN425  TRP426  SER427 
 LYS428  LEU429  GLN430  VAL431  PHE432  ASP433  TYR453  SER462  ALA463  ILE464 

> <Gold.Protein.RotatedAtoms>
  205.0129   51.8492   60.6679 H   0  0  0  0  0  0  0  0  0  0  0  0  # atno 7907 bound_to 7874
  207.8923   51.0965   73.0251 H   0  0  0  0  0  0  0  0  0  0  0  0  # atno 9571 bound_to 9508
  209.1510   52.0791   72.7118 LP  0  0  0  0  0  0  0  0  0  0  0  0  # atno 27207 bound_to 9508
  208.0032   52.5334   73.7808 LP  0  0  0  0  0  0  0  0  0  0  0  0  # atno 27208 bound_to 9508
  204.8963   50.8951   61.9806 LP  0  0  0  0  0  0  0  0  0  0  0  0  # atno 27219 bound_to 7874
  204.5901   50.2875   60.4961 LP  0  0  0  0  0  0  0  0  0  0  0  0  # atno 27220 bound_to 7874

> <Gold.Score>
     Fitness  S(hb_ext) S(vdw_ext)  S(hb_int)    S(int)      intcor
     29.89       0.86      21.57       0.00      -0.63      -0.78

> <Gold.Goldscore.Fitness>
29.8894

> <Gold.Goldscore.Internal.Vdw>
-1.0423

> <Gold.Goldscore.Internal.Torsion>
-0.3670

> <Gold.Goldscore.External.Vdw>
21.5744

> <Gold.Goldscore.Internal.HBond>
0.0000

> <Gold.Goldscore.External.HBond>
0.8557

> <Gold.Goldscore.Internal.Correction>
-0.7782

> <Gold.Goldscore.Hbonds>
donor molecule, donor type, donor heavy atom, donor atom, acceptor molecule, acceptor atom, score
      P1  H  8001  8055       L1    17  0.11
      P1  H  8084  8134       L1     9  0.31
      L1  H     8    22       P1  8004  0.01

> <Gold.Goldscore.Internal.Vdw.Weighted>
-1.0423

> <Gold.Goldscore.Internal.Torsion.Weighted>
-0.3670

> <Gold.Goldscore.External.Vdw.Weighted>
29.6648

> <Gold.Goldscore.Internal.HBond.Weighted>
0.0000

> <Gold.Goldscore.External.HBond.Weighted>
0.8557

> <Gold.Goldscore.Internal.Correction.Weighted>
-0.7782

> <Gold.Rescore>
     Score     S(PLP)   S(hbond)     S(cho)   S(metal)  DE(clash)   DE(tors)     intcor
     32.25     -26.84       1.87       0.00       0.00       0.00       0.10       ----

> <Gold.PLP.Fitness>
32.2530

> <Gold.PLP.PLP>
-26.8398

> <Gold.PLP.part.hbond>
-3.2270

> <Gold.PLP.part.metal>
0.0000

> <Gold.PLP.part.buried>
-1.7751

> <Gold.PLP.part.nonpolar>
-22.5117

> <Gold.PLP.part.repulsive>
1.0039

> <Gold.PLP.ligand.clash>
0.0000

> <Gold.PLP.ligand.torsion>
0.1018

> <Gold.PLP.Chemscore.Hbond>
1.8723

> <Gold.PLP.Chemscore.CHOScore>
0.0000

> <Gold.PLP.Chemscore.Metal>
0.0000

> <Gold.Chemscore.Hbonds>
donor molecule, donor type, donor heavy atom, donor atom, acceptor molecule, acceptor atom, score
      L1  H     8    22       P1  8004  0.24
      P1  H  8001  8055       L1    17  0.13
      P1  H  8084  8134       L1     9  1.00

> <Gold.PLP.Chemscore.Internal.Correction>
   9.000000E+99

