#       Name:                CT1002167954
#       Creating user name   hitesit
#       Creation time:       Sun Apr 16 22:54:41 2023


#       File generated by GOLD software.
#

@<TRIPOS>MOLECULE
CT1002167954|ligand_prepared|mol2|1|dock6
    29    30     1
SMALL
NO_CHARGES


@<TRIPOS>ATOM
      1 C1         206.6278  53.3836  69.4445 C.3            1 RES1               0.0000
      2 C2         207.6589  53.9669  68.4569 C.ar           1 RES1               0.0000
      3 C3         206.0031  52.1777  68.7491 C.2            1 RES1               0.0000
      4 C4         207.4000  53.0391  70.7133 C.2            1 RES1               0.0000
      5 C5         205.4995  54.3703  69.8250 C.3            1 RES1               0.0000
      6 C6         208.9782  53.5243  68.4662 C.ar           1 RES1               0.0000
      7 C7         207.3056  54.9445  67.5305 C.ar           1 RES1               0.0000
      8 N8         206.3698  50.9379  69.1832 N.am           1 RES1               0.0000
      9 O9         205.2306  52.3120  67.8081 O.2            1 RES1               0.0000
     10 N10        207.5001  51.7186  71.0654 N.am           1 RES1               0.0000
     11 O11        207.9367  53.8979  71.4023 O.2            1 RES1               0.0000
     12 C12        204.6458  53.9042  70.9939 C.3            1 RES1               0.0000
     13 C13        209.9100  54.0382  67.5796 C.ar           1 RES1               0.0000
     14 C14        208.2391  55.4572  66.6449 C.ar           1 RES1               0.0000
     15 C15        207.0462  50.6500  70.3413 C.2            1 RES1               0.0000
     16 C16        209.5411  55.0045  66.6682 C.ar           1 RES1               0.0000
     17 O17        207.2222  49.4881  70.6966 O.2            1 RES1               0.0000
     18 H18        205.9480  55.3386  70.0793 H              1 RES1               0.0000
     19 H19        204.8518  54.5196  68.9523 H              1 RES1               0.0000
     20 H20        209.2877  52.7662  69.1779 H              1 RES1               0.0000
     21 H21        206.2872  55.3164  67.4947 H              1 RES1               0.0000
     22 H22        206.1180  50.1522  68.5919 H              1 RES1               0.0000
     23 H23        207.9551  51.5132  71.9492 H              1 RES1               0.0000
     24 H24        203.8697  54.6326  71.2193 H              1 RES1               0.0000
     25 H25        204.1642  52.9556  70.7657 H              1 RES1               0.0000
     26 H26        205.2538  53.7697  71.8861 H              1 RES1               0.0000
     27 H27        210.9338  53.6795  67.6029 H              1 RES1               0.0000
     28 H28        207.9444  56.2180  65.9297 H              1 RES1               0.0000
     29 H29        210.2711  55.4066  65.9735 H              1 RES1               0.0000
@<TRIPOS>BOND
    1    1    2 1     
    2    1    3 1     
    3    1    4 1     
    4    1    5 1     
    5    2    6 ar    
    6    2    7 ar    
    7    3    8 1     
    8    3    9 2     
    9    4   10 1     
   10    4   11 2     
   11    5   12 1     
   12    5   18 1     
   13    5   19 1     
   14    6   13 ar    
   15    6   20 1     
   16    7   14 ar    
   17    7   21 1     
   18    8   15 1     
   19    8   22 1     
   20   10   15 1     
   21   10   23 1     
   22   12   24 1     
   23   12   25 1     
   24   12   26 1     
   25   13   16 ar    
   26   13   27 1     
   27   14   16 ar    
   28   14   28 1     
   29   15   17 2     
   30   16   29 1     
@<TRIPOS>SUBSTRUCTURE
      1 RES1           1
@<TRIPOS>SET
DONOR_HYDROGENS      STATIC     ATOMS    <user>   **** ""
2 22 23
ATOM$RED        STATIC     ATOMS    COLORGROUP SYSTEM
2 22 23
@<TRIPOS>COMMENT
> <Gold.Version>
2022.3.0

> <Gold.Id.Protein>
unknown|4d1n_clean|pdb

> <Gold.Protein.RotatedTorsions>
[ 9571 9508 9507 9505 ] final   12.80 input   60.00 | X-H torsion
[ 7907 7874 7873 7870 ] final    5.64 input   60.00 | X-H torsion

> <Gold.Protein.ActiveResidues>
 ASP403  THR404  ILE407  TYR408  ALA410  LYS411  TRP414  GLN425  TRP426  SER427 
 LYS428  LEU429  GLN430  VAL431  PHE432  ASP433  TYR453  SER462  ALA463  ILE464 

> <Gold.Protein.RotatedAtoms>
  204.7893   50.5246   61.8445 H   0  0  0  0  0  0  0  0  0  0  0  0  # atno 7907 bound_to 7874
  208.6061   52.7449   73.4851 H   0  0  0  0  0  0  0  0  0  0  0  0  # atno 9571 bound_to 9508
  207.5563   51.5016   73.4929 LP  0  0  0  0  0  0  0  0  0  0  0  0  # atno 27207 bound_to 9508
  208.8791   51.4512   72.5366 LP  0  0  0  0  0  0  0  0  0  0  0  0  # atno 27208 bound_to 9508
  204.6415   50.5921   60.2256 LP  0  0  0  0  0  0  0  0  0  0  0  0  # atno 27219 bound_to 7874
  205.0701   51.9252   61.0657 LP  0  0  0  0  0  0  0  0  0  0  0  0  # atno 27220 bound_to 7874

> <Gold.Score>
     Fitness  S(hb_ext) S(vdw_ext)  S(hb_int)    S(int)      intcor
     25.14       1.30      17.64       0.00      -0.42      -0.77

> <Gold.Goldscore.Fitness>
25.1354

> <Gold.Goldscore.Internal.Vdw>
-0.6208

> <Gold.Goldscore.Internal.Torsion>
-0.5678

> <Gold.Goldscore.External.Vdw>
17.6400

> <Gold.Goldscore.Internal.HBond>
0.0000

> <Gold.Goldscore.External.HBond>
1.3037

> <Gold.Goldscore.Internal.Correction>
-0.7653

> <Gold.Goldscore.Hbonds>
donor molecule, donor type, donor heavy atom, donor atom, acceptor molecule, acceptor atom, score
      P1  H  8084  8134       L1    11  0.01
      L1  H     8    22       P1  7916  0.15
      L1  H    10    23       P1  9508  0.49

> <Gold.Goldscore.Internal.Vdw.Weighted>
-0.6208

> <Gold.Goldscore.Internal.Torsion.Weighted>
-0.5678

> <Gold.Goldscore.External.Vdw.Weighted>
24.2550

> <Gold.Goldscore.Internal.HBond.Weighted>
0.0000

> <Gold.Goldscore.External.HBond.Weighted>
1.3037

> <Gold.Goldscore.Internal.Correction.Weighted>
-0.7653

> <Gold.Rescore>
     Score     S(PLP)   S(hbond)     S(cho)   S(metal)  DE(clash)   DE(tors)     intcor
     20.10     -17.50       1.73       0.00       0.00       0.00       1.30       ----

> <Gold.PLP.Fitness>
20.0979

> <Gold.PLP.PLP>
-17.5006

> <Gold.PLP.part.hbond>
-2.9950

> <Gold.PLP.part.metal>
0.0000

> <Gold.PLP.part.buried>
0.6550

> <Gold.PLP.part.nonpolar>
-15.4378

> <Gold.PLP.part.repulsive>
0.4366

> <Gold.PLP.ligand.clash>
0.0000

> <Gold.PLP.ligand.torsion>
1.3016

> <Gold.PLP.Chemscore.Hbond>
1.7335

> <Gold.PLP.Chemscore.CHOScore>
0.0000

> <Gold.PLP.Chemscore.Metal>
0.0000

> <Gold.Chemscore.Hbonds>
donor molecule, donor type, donor heavy atom, donor atom, acceptor molecule, acceptor atom, score
      L1  H    10    23       P1  9508  0.98
      P1  H  9508  9571       L1    11  0.02

> <Gold.PLP.Chemscore.Internal.Correction>
   9.000000E+99

