#       Name:                CT1002167954
#       Creating user name   hitesit
#       Creation time:       Sun Apr 16 22:54:40 2023


#       File generated by GOLD software.
#

@<TRIPOS>MOLECULE
CT1002167954|ligand_prepared|mol2|1|dock5
    29    30     1
SMALL
NO_CHARGES


@<TRIPOS>ATOM
      1 C1         207.0170  53.5321  70.4001 C.3            1 RES1               0.0000
      2 C2         207.6230  54.0350  71.7263 C.ar           1 RES1               0.0000
      3 C3         207.1886  54.6659  69.3935 C.2            1 RES1               0.0000
      4 C4         207.7760  52.2598  70.0396 C.2            1 RES1               0.0000
      5 C5         205.5137  53.1814  70.4934 C.3            1 RES1               0.0000
      6 C6         207.0746  53.6513  72.9465 C.ar           1 RES1               0.0000
      7 C7         208.7299  54.8792  71.7456 C.ar           1 RES1               0.0000
      8 N8         208.1428  54.5168  68.4306 N.am           1 RES1               0.0000
      9 O9         206.5241  55.6921  69.4674 O.2            1 RES1               0.0000
     10 N10        208.5553  52.2746  68.9126 N.am           1 RES1               0.0000
     11 O11        207.7192  51.2499  70.7304 O.2            1 RES1               0.0000
     12 C12        204.8542  52.9457  69.1437 C.3            1 RES1               0.0000
     13 C13        207.6150  54.0933  74.1427 C.ar           1 RES1               0.0000
     14 C14        209.2687  55.3202  72.9430 C.ar           1 RES1               0.0000
     15 C15        208.7974  53.3551  68.1087 C.2            1 RES1               0.0000
     16 C16        208.7125  54.9275  74.1418 C.ar           1 RES1               0.0000
     17 O17        209.5541  53.3043  67.1433 O.2            1 RES1               0.0000
     18 H18        205.3991  52.2780  71.1049 H              1 RES1               0.0000
     19 H19        204.9911  54.0001  71.0034 H              1 RES1               0.0000
     20 H20        206.2093  52.9972  72.9669 H              1 RES1               0.0000
     21 H21        209.1834  55.2020  70.8145 H              1 RES1               0.0000
     22 H22        208.3929  55.3458  67.9009 H              1 RES1               0.0000
     23 H23        208.9958  51.3991  68.6485 H              1 RES1               0.0000
     24 H24        203.8007  52.7033  69.2662 H              1 RES1               0.0000
     25 H25        204.9273  53.8331  68.5184 H              1 RES1               0.0000
     26 H26        205.3329  52.1212  68.6193 H              1 RES1               0.0000
     27 H27        207.1727  53.7824  75.0834 H              1 RES1               0.0000
     28 H28        210.1321  55.9772  72.9375 H              1 RES1               0.0000
     29 H29        209.1359  55.2733  75.0790 H              1 RES1               0.0000
@<TRIPOS>BOND
    1    1    2 1     
    2    1    3 1     
    3    1    4 1     
    4    1    5 1     
    5    2    6 ar    
    6    2    7 ar    
    7    3    8 1     
    8    3    9 2     
    9    4   10 1     
   10    4   11 2     
   11    5   12 1     
   12    5   18 1     
   13    5   19 1     
   14    6   13 ar    
   15    6   20 1     
   16    7   14 ar    
   17    7   21 1     
   18    8   15 1     
   19    8   22 1     
   20   10   15 1     
   21   10   23 1     
   22   12   24 1     
   23   12   25 1     
   24   12   26 1     
   25   13   16 ar    
   26   13   27 1     
   27   14   16 ar    
   28   14   28 1     
   29   15   17 2     
   30   16   29 1     
@<TRIPOS>SUBSTRUCTURE
      1 RES1           1
@<TRIPOS>SET
DONOR_HYDROGENS      STATIC     ATOMS    <user>   **** ""
2 22 23
ATOM$RED        STATIC     ATOMS    COLORGROUP SYSTEM
2 22 23
@<TRIPOS>COMMENT
> <Gold.Version>
2022.3.0

> <Gold.Id.Protein>
unknown|4d1n_clean|pdb

> <Gold.Protein.RotatedTorsions>
[ 9571 9508 9507 9505 ] final -108.19 input   60.00 | X-H torsion
[ 7907 7874 7873 7870 ] final   72.00 input   60.00 | X-H torsion

> <Gold.Protein.ActiveResidues>
 ASP403  THR404  ILE407  TYR408  ALA410  LYS411  TRP414  GLN425  TRP426  SER427 
 LYS428  LEU429  GLN430  VAL431  PHE432  ASP433  TYR453  SER462  ALA463  ILE464 

> <Gold.Protein.RotatedAtoms>
  205.0417   51.5167   61.8078 H   0  0  0  0  0  0  0  0  0  0  0  0  # atno 7907 bound_to 7874
  207.5661   51.4902   73.4831 H   0  0  0  0  0  0  0  0  0  0  0  0  # atno 9571 bound_to 9508
  208.8895   51.4638   72.5366 LP  0  0  0  0  0  0  0  0  0  0  0  0  # atno 27207 bound_to 9508
  208.5931   52.7524   73.4949 LP  0  0  0  0  0  0  0  0  0  0  0  0  # atno 27208 bound_to 9508
  204.6062   50.1018   61.1330 LP  0  0  0  0  0  0  0  0  0  0  0  0  # atno 27219 bound_to 7874
  204.8511   51.4159   60.1952 LP  0  0  0  0  0  0  0  0  0  0  0  0  # atno 27220 bound_to 7874

> <Gold.Score>
     Fitness  S(hb_ext) S(vdw_ext)  S(hb_int)    S(int)      intcor
     19.71       0.17      14.72       0.00      -0.70      -0.77

> <Gold.Goldscore.Fitness>
19.7109

> <Gold.Goldscore.Internal.Vdw>
-0.8945

> <Gold.Goldscore.Internal.Torsion>
-0.5687

> <Gold.Goldscore.External.Vdw>
14.7202

> <Gold.Goldscore.Internal.HBond>
0.0000

> <Gold.Goldscore.External.HBond>
0.1686

> <Gold.Goldscore.Internal.Correction>
-0.7653

> <Gold.Goldscore.Hbonds>
donor molecule, donor type, donor heavy atom, donor atom, acceptor molecule, acceptor atom, score
      P1  H  8084  8134       L1    11  0.08

> <Gold.Goldscore.Internal.Vdw.Weighted>
-0.8945

> <Gold.Goldscore.Internal.Torsion.Weighted>
-0.5687

> <Gold.Goldscore.External.Vdw.Weighted>
20.2403

> <Gold.Goldscore.Internal.HBond.Weighted>
0.0000

> <Gold.Goldscore.External.HBond.Weighted>
0.1686

> <Gold.Goldscore.Internal.Correction.Weighted>
-0.7653

> <Gold.Rescore>
     Score     S(PLP)   S(hbond)     S(cho)   S(metal)  DE(clash)   DE(tors)     intcor
     12.27     -14.42       0.00       0.00       0.00       0.00       1.08       ----

> <Gold.PLP.Fitness>
12.2699

> <Gold.PLP.PLP>
-14.4213

> <Gold.PLP.part.hbond>
-1.0000

> <Gold.PLP.part.metal>
0.0000

> <Gold.PLP.part.buried>
-1.5389

> <Gold.PLP.part.nonpolar>
-12.5642

> <Gold.PLP.part.repulsive>
0.3822

> <Gold.PLP.ligand.clash>
0.0000

> <Gold.PLP.ligand.torsion>
1.0757

> <Gold.PLP.Chemscore.Hbond>
0.0000

> <Gold.PLP.Chemscore.CHOScore>
0.0000

> <Gold.PLP.Chemscore.Metal>
0.0000

> <Gold.PLP.Chemscore.Internal.Correction>
   9.000000E+99

