#       Name:                CT1002167954
#       Creating user name   hitesit
#       Creation time:       Sun Apr 16 22:54:42 2023


#       File generated by GOLD software.
#

@<TRIPOS>MOLECULE
CT1002167954|ligand_prepared|mol2|1|dock10
    29    30     1
SMALL
NO_CHARGES


@<TRIPOS>ATOM
      1 C1         216.3361  55.4251  71.7544 C.3            1 RES1               0.0000
      2 C2         215.9080  55.2492  73.2256 C.ar           1 RES1               0.0000
      3 C3         216.5244  54.0192  71.1920 C.2            1 RES1               0.0000
      4 C4         215.2252  56.2216  71.0791 C.2            1 RES1               0.0000
      5 C5         217.6592  56.2060  71.5777 C.3            1 RES1               0.0000
      6 C6         216.8596  55.2063  74.2402 C.ar           1 RES1               0.0000
      7 C7         214.5676  55.1315  73.5834 C.ar           1 RES1               0.0000
      8 N8         215.5744  53.5496  70.3335 N.am           1 RES1               0.0000
      9 O9         217.4712  53.3183  71.5274 O.2            1 RES1               0.0000
     10 N10        214.4925  55.6003  70.1019 N.am           1 RES1               0.0000
     11 O11        214.9668  57.3762  71.3960 O.2            1 RES1               0.0000
     12 C12        217.9282  56.6404  70.1455 C.3            1 RES1               0.0000
     13 C13        216.4846  55.0542  75.5648 C.ar           1 RES1               0.0000
     14 C14        214.1948  54.9793  74.9087 C.ar           1 RES1               0.0000
     15 C15        214.5966  54.2906  69.7199 C.2            1 RES1               0.0000
     16 C16        215.1522  54.9410  75.9000 C.ar           1 RES1               0.0000
     17 O17        213.8647  53.7894  68.8712 O.2            1 RES1               0.0000
     18 H18        217.6317  57.0966  72.2176 H              1 RES1               0.0000
     19 H19        218.4898  55.5749  71.9170 H              1 RES1               0.0000
     20 H20        217.9131  55.2913  73.9954 H              1 RES1               0.0000
     21 H21        213.7972  55.1578  72.8202 H              1 RES1               0.0000
     22 H22        215.5927  52.5555  70.1289 H              1 RES1               0.0000
     23 H23        213.8060  56.1668  69.6139 H              1 RES1               0.0000
     24 H24        218.8682  57.1839  70.0774 H              1 RES1               0.0000
     25 H25        217.9870  55.7776  69.4853 H              1 RES1               0.0000
     26 H26        217.1340  57.2903  69.7840 H              1 RES1               0.0000
     27 H27        217.2421  55.0233  76.3411 H              1 RES1               0.0000
     28 H28        213.1450  54.8900  75.1678 H              1 RES1               0.0000
     29 H29        214.8587  54.8223  76.9378 H              1 RES1               0.0000
@<TRIPOS>BOND
    1    1    2 1     
    2    1    3 1     
    3    1    4 1     
    4    1    5 1     
    5    2    6 ar    
    6    2    7 ar    
    7    3    8 1     
    8    3    9 2     
    9    4   10 1     
   10    4   11 2     
   11    5   12 1     
   12    5   18 1     
   13    5   19 1     
   14    6   13 ar    
   15    6   20 1     
   16    7   14 ar    
   17    7   21 1     
   18    8   15 1     
   19    8   22 1     
   20   10   15 1     
   21   10   23 1     
   22   12   24 1     
   23   12   25 1     
   24   12   26 1     
   25   13   16 ar    
   26   13   27 1     
   27   14   16 ar    
   28   14   28 1     
   29   15   17 2     
   30   16   29 1     
@<TRIPOS>SUBSTRUCTURE
      1 RES1           1
@<TRIPOS>SET
DONOR_HYDROGENS      STATIC     ATOMS    <user>   **** ""
2 22 23
ATOM$RED        STATIC     ATOMS    COLORGROUP SYSTEM
2 22 23
@<TRIPOS>COMMENT
> <Gold.Version>
2022.3.0

> <Gold.Id.Protein>
unknown|4d1n_clean|pdb

> <Gold.Protein.RotatedTorsions>
[ 9571 9508 9507 9505 ] final -130.09 input   60.00 | X-H torsion
[ 7907 7874 7873 7870 ] final   54.39 input   60.00 | X-H torsion

> <Gold.Protein.ActiveResidues>
 ASP403  THR404  ILE407  TYR408  ALA410  LYS411  TRP414  GLN425  TRP426  SER427 
 LYS428  LEU429  GLN430  VAL431  PHE432  ASP433  TYR453  SER462  ALA463  ILE464 

> <Gold.Protein.RotatedAtoms>
  204.9896   51.2652   61.9348 H   0  0  0  0  0  0  0  0  0  0  0  0  # atno 7907 bound_to 7874
  207.6860   51.2443   73.2558 H   0  0  0  0  0  0  0  0  0  0  0  0  # atno 9571 bound_to 9508
  209.0730   51.7675   72.5849 LP  0  0  0  0  0  0  0  0  0  0  0  0  # atno 27207 bound_to 9508
  208.2889   52.6963   73.6754 LP  0  0  0  0  0  0  0  0  0  0  0  0  # atno 27208 bound_to 9508
  204.5837   50.1261   60.8462 LP  0  0  0  0  0  0  0  0  0  0  0  0  # atno 27219 bound_to 7874
  204.9262   51.6450   60.3540 LP  0  0  0  0  0  0  0  0  0  0  0  0  # atno 27220 bound_to 7874

> <Gold.Score>
     Fitness  S(hb_ext) S(vdw_ext)  S(hb_int)    S(int)      intcor
     14.86       1.82       9.90       0.00      -0.58      -0.77

> <Gold.Goldscore.Fitness>
14.8561

> <Gold.Goldscore.Internal.Vdw>
-0.7437

> <Gold.Goldscore.Internal.Torsion>
-0.6049

> <Gold.Goldscore.External.Vdw>
9.9015

> <Gold.Goldscore.Internal.HBond>
0.0000

> <Gold.Goldscore.External.HBond>
1.8249

> <Gold.Goldscore.Internal.Correction>
-0.7653

> <Gold.Goldscore.Hbonds>
donor molecule, donor type, donor heavy atom, donor atom, acceptor molecule, acceptor atom, score
      P1  H  8145  8191       L1    17  0.46
      P1  H  8289  8329       L1     9  0.11
      L1  H     8    22       P1  8148  0.34

> <Gold.Goldscore.Internal.Vdw.Weighted>
-0.7437

> <Gold.Goldscore.Internal.Torsion.Weighted>
-0.6049

> <Gold.Goldscore.External.Vdw.Weighted>
13.6146

> <Gold.Goldscore.Internal.HBond.Weighted>
0.0000

> <Gold.Goldscore.External.HBond.Weighted>
1.8249

> <Gold.Goldscore.Internal.Correction.Weighted>
-0.7653

> <Gold.Rescore>
     Score     S(PLP)   S(hbond)     S(cho)   S(metal)  DE(clash)   DE(tors)     intcor
     14.97     -14.32       1.00       0.00       0.00       0.00       1.18       ----

> <Gold.PLP.Fitness>
14.9682

> <Gold.PLP.PLP>
-14.3246

> <Gold.PLP.part.hbond>
-1.2225

> <Gold.PLP.part.metal>
0.0000

> <Gold.PLP.part.buried>
-1.9449

> <Gold.PLP.part.nonpolar>
-11.5304

> <Gold.PLP.part.repulsive>
0.3053

> <Gold.PLP.ligand.clash>
0.0000

> <Gold.PLP.ligand.torsion>
1.1782

> <Gold.PLP.Chemscore.Hbond>
1.0000

> <Gold.PLP.Chemscore.CHOScore>
0.0000

> <Gold.PLP.Chemscore.Metal>
0.0000

> <Gold.Chemscore.Hbonds>
donor molecule, donor type, donor heavy atom, donor atom, acceptor molecule, acceptor atom, score
      L1  H     8    22       P1  8148  0.39
      P1  H  8145  8191       L1    17  0.10

> <Gold.PLP.Chemscore.Internal.Correction>
   9.000000E+99

