#       Name:                CT1002167954
#       Creating user name   hitesit
#       Creation time:       Sun Apr 16 22:54:39 2023


#       File generated by GOLD software.
#

@<TRIPOS>MOLECULE
CT1002167954|ligand_prepared|mol2|1|dock3
    29    30     1
SMALL
NO_CHARGES


@<TRIPOS>ATOM
      1 C1         208.1985  53.3537  67.5508 C.3            1 RES1               0.0000
      2 C2         207.5470  52.3122  68.4832 C.ar           1 RES1               0.0000
      3 C3         208.9923  54.2968  68.4501 C.2            1 RES1               0.0000
      4 C4         209.0547  52.5669  66.5646 C.2            1 RES1               0.0000
      5 C5         207.1810  54.1891  66.7394 C.3            1 RES1               0.0000
      6 C6         208.3328  51.4797  69.2745 C.ar           1 RES1               0.0000
      7 C7         206.1639  52.1742  68.5648 C.ar           1 RES1               0.0000
      8 N8         210.3512  54.1826  68.4424 N.am           1 RES1               0.0000
      9 O9         208.4325  55.1015  69.1844 O.2            1 RES1               0.0000
     10 N10        210.4135  52.7371  66.6158 N.am           1 RES1               0.0000
     11 O11        208.5662  51.7885  65.7548 O.2            1 RES1               0.0000
     12 C12        207.8251  55.1549  65.7573 C.3            1 RES1               0.0000
     13 C13        207.7569  50.5451  70.1190 C.ar           1 RES1               0.0000
     14 C14        205.5900  51.2388  69.4099 C.ar           1 RES1               0.0000
     15 C15        211.1026  53.4860  67.5304 C.2            1 RES1               0.0000
     16 C16        206.3853  50.4243  70.1876 C.ar           1 RES1               0.0000
     17 O17        212.3287  53.5464  67.5459 O.2            1 RES1               0.0000
     18 H18        206.5258  53.5061  66.1848 H              1 RES1               0.0000
     19 H19        206.5563  54.7599  67.4375 H              1 RES1               0.0000
     20 H20        209.4140  51.5586  69.2321 H              1 RES1               0.0000
     21 H21        205.5186  52.8035  67.9614 H              1 RES1               0.0000
     22 H22        210.8554  54.6593  69.1833 H              1 RES1               0.0000
     23 H23        210.9620  52.2616  65.9063 H              1 RES1               0.0000
     24 H24        207.0671  55.7157  65.2145 H              1 RES1               0.0000
     25 H25        208.4643  55.8651  66.2777 H              1 RES1               0.0000
     26 H26        208.4341  54.6187  65.0323 H              1 RES1               0.0000
     27 H27        208.3872  49.9056  70.7280 H              1 RES1               0.0000
     28 H28        204.5101  51.1468  69.4602 H              1 RES1               0.0000
     29 H29        205.9343  49.6924  70.8496 H              1 RES1               0.0000
@<TRIPOS>BOND
    1    1    2 1     
    2    1    3 1     
    3    1    4 1     
    4    1    5 1     
    5    2    6 ar    
    6    2    7 ar    
    7    3    8 1     
    8    3    9 2     
    9    4   10 1     
   10    4   11 2     
   11    5   12 1     
   12    5   18 1     
   13    5   19 1     
   14    6   13 ar    
   15    6   20 1     
   16    7   14 ar    
   17    7   21 1     
   18    8   15 1     
   19    8   22 1     
   20   10   15 1     
   21   10   23 1     
   22   12   24 1     
   23   12   25 1     
   24   12   26 1     
   25   13   16 ar    
   26   13   27 1     
   27   14   16 ar    
   28   14   28 1     
   29   15   17 2     
   30   16   29 1     
@<TRIPOS>SUBSTRUCTURE
      1 RES1           1
@<TRIPOS>SET
DONOR_HYDROGENS      STATIC     ATOMS    <user>   **** ""
2 22 23
ATOM$RED        STATIC     ATOMS    COLORGROUP SYSTEM
2 22 23
@<TRIPOS>COMMENT
> <Gold.Version>
2022.3.0

> <Gold.Id.Protein>
unknown|4d1n_clean|pdb

> <Gold.Protein.RotatedTorsions>
[ 9571 9508 9507 9505 ] final  -86.99 input   60.00 | X-H torsion
[ 7907 7874 7873 7870 ] final   74.50 input   60.00 | X-H torsion

> <Gold.Protein.ActiveResidues>
 ASP403  THR404  ILE407  TYR408  ALA410  LYS411  TRP414  GLN425  TRP426  SER427 
 LYS428  LEU429  GLN430  VAL431  PHE432  ASP433  TYR453  SER462  ALA463  ILE464 

> <Gold.Protein.RotatedAtoms>
  205.0477   51.5491   61.7836 H   0  0  0  0  0  0  0  0  0  0  0  0  # atno 7907 bound_to 7874
  207.5577   51.7852   73.6609 H   0  0  0  0  0  0  0  0  0  0  0  0  # atno 9571 bound_to 9508
  208.6368   51.2295   72.5772 LP  0  0  0  0  0  0  0  0  0  0  0  0  # atno 27207 bound_to 9508
  208.8543   52.6896   73.2753 LP  0  0  0  0  0  0  0  0  0  0  0  0  # atno 27208 bound_to 9508
  204.6112   50.1053   61.1737 LP  0  0  0  0  0  0  0  0  0  0  0  0  # atno 27219 bound_to 7874
  204.8401   51.3798   60.1788 LP  0  0  0  0  0  0  0  0  0  0  0  0  # atno 27220 bound_to 7874

> <Gold.Score>
     Fitness  S(hb_ext) S(vdw_ext)  S(hb_int)    S(int)      intcor
     31.56       0.27      22.93       0.00      -0.24      -0.77

> <Gold.Goldscore.Fitness>
31.5629

> <Gold.Goldscore.Internal.Vdw>
-0.6308

> <Gold.Goldscore.Internal.Torsion>
-0.3866

> <Gold.Goldscore.External.Vdw>
22.9321

> <Gold.Goldscore.Internal.HBond>
0.0000

> <Gold.Goldscore.External.HBond>
0.2749

> <Gold.Goldscore.Internal.Correction>
-0.7737

> <Gold.Goldscore.Hbonds>
donor molecule, donor type, donor heavy atom, donor atom, acceptor molecule, acceptor atom, score
      P1  H  8001  8055       L1    11  0.11
      P1  H  8145  8191       L1    17  0.03

> <Gold.Goldscore.Internal.Vdw.Weighted>
-0.6308

> <Gold.Goldscore.Internal.Torsion.Weighted>
-0.3866

> <Gold.Goldscore.External.Vdw.Weighted>
31.5316

> <Gold.Goldscore.Internal.HBond.Weighted>
0.0000

> <Gold.Goldscore.External.HBond.Weighted>
0.2749

> <Gold.Goldscore.Internal.Correction.Weighted>
-0.7737

> <Gold.Rescore>
     Score     S(PLP)   S(hbond)     S(cho)   S(metal)  DE(clash)   DE(tors)     intcor
     36.00     -32.65       1.14       0.00       0.00       0.00       0.04       ----

> <Gold.PLP.Fitness>
35.9957

> <Gold.PLP.PLP>
-32.6502

> <Gold.PLP.part.hbond>
-2.0000

> <Gold.PLP.part.metal>
0.0000

> <Gold.PLP.part.buried>
-0.1482

> <Gold.PLP.part.nonpolar>
-31.8281

> <Gold.PLP.part.repulsive>
0.4801

> <Gold.PLP.ligand.clash>
0.0000

> <Gold.PLP.ligand.torsion>
0.0370

> <Gold.PLP.Chemscore.Hbond>
1.1399

> <Gold.PLP.Chemscore.CHOScore>
0.0000

> <Gold.PLP.Chemscore.Metal>
0.0000

> <Gold.Chemscore.Hbonds>
donor molecule, donor type, donor heavy atom, donor atom, acceptor molecule, acceptor atom, score
      P1  H  8001  8055       L1    11  0.63

> <Gold.PLP.Chemscore.Internal.Correction>
   9.000000E+99

