#       Name:                CT1002167954
#       Creating user name   hitesit
#       Creation time:       Sun Apr 16 22:54:39 2023


#       File generated by GOLD software.
#

@<TRIPOS>MOLECULE
CT1002167954|ligand_prepared|mol2|1|dock2
    29    30     1
SMALL
NO_CHARGES


@<TRIPOS>ATOM
      1 C1         206.7329  52.9196  69.5227 C.3            1 RES1               0.0000
      2 C2         205.9546  51.6515  69.9289 C.ar           1 RES1               0.0000
      3 C3         208.1990  52.5089  69.4226 C.2            1 RES1               0.0000
      4 C4         206.1267  53.3882  68.2045 C.2            1 RES1               0.0000
      5 C5         206.6157  54.0777  70.5409 C.3            1 RES1               0.0000
      6 C6         206.3163  50.4060  69.4243 C.ar           1 RES1               0.0000
      7 C7         204.8764  51.7109  70.8079 C.ar           1 RES1               0.0000
      8 N8         208.7378  52.3888  68.1755 N.am           1 RES1               0.0000
      9 O9         208.8613  52.2557  70.4213 O.2            1 RES1               0.0000
     10 N10        206.9148  53.3459  67.0843 N.am           1 RES1               0.0000
     11 O11        204.9684  53.7780  68.1227 O.2            1 RES1               0.0000
     12 C12        207.5342  55.2521  70.2422 C.3            1 RES1               0.0000
     13 C13        205.6270  49.2609  69.7874 C.ar           1 RES1               0.0000
     14 C14        204.1883  50.5645  71.1696 C.ar           1 RES1               0.0000
     15 C15        208.1831  52.8386  67.0043 C.2            1 RES1               0.0000
     16 C16        204.5630  49.3392  70.6605 C.ar           1 RES1               0.0000
     17 O17        208.8082  52.7850  65.9491 O.2            1 RES1               0.0000
     18 H18        205.5784  54.4346  70.5518 H              1 RES1               0.0000
     19 H19        206.8485  53.6930  71.5415 H              1 RES1               0.0000
     20 H20        207.1494  50.3251  68.7341 H              1 RES1               0.0000
     21 H21        204.5633  52.6641  71.2200 H              1 RES1               0.0000
     22 H22        209.6362  51.9214  68.1074 H              1 RES1               0.0000
     23 H23        206.5195  53.7282  66.2311 H              1 RES1               0.0000
     24 H24        207.4122  56.0362  70.9864 H              1 RES1               0.0000
     25 H25        208.5760  54.9382  70.2483 H              1 RES1               0.0000
     26 H26        207.3135  55.6754  69.2645 H              1 RES1               0.0000
     27 H27        205.9250  48.2992  69.3829 H              1 RES1               0.0000
     28 H28        203.3512  50.6309  71.8565 H              1 RES1               0.0000
     29 H29        204.0234  48.4420  70.9451 H              1 RES1               0.0000
@<TRIPOS>BOND
    1    1    2 1     
    2    1    3 1     
    3    1    4 1     
    4    1    5 1     
    5    2    6 ar    
    6    2    7 ar    
    7    3    8 1     
    8    3    9 2     
    9    4   10 1     
   10    4   11 2     
   11    5   12 1     
   12    5   18 1     
   13    5   19 1     
   14    6   13 ar    
   15    6   20 1     
   16    7   14 ar    
   17    7   21 1     
   18    8   15 1     
   19    8   22 1     
   20   10   15 1     
   21   10   23 1     
   22   12   24 1     
   23   12   25 1     
   24   12   26 1     
   25   13   16 ar    
   26   13   27 1     
   27   14   16 ar    
   28   14   28 1     
   29   15   17 2     
   30   16   29 1     
@<TRIPOS>SUBSTRUCTURE
      1 RES1           1
@<TRIPOS>SET
DONOR_HYDROGENS      STATIC     ATOMS    <user>   **** ""
2 22 23
ATOM$RED        STATIC     ATOMS    COLORGROUP SYSTEM
2 22 23
@<TRIPOS>COMMENT
> <Gold.Version>
2022.3.0

> <Gold.Id.Protein>
unknown|4d1n_clean|pdb

> <Gold.Protein.RotatedTorsions>
[ 9571 9508 9507 9505 ] final  176.51 input   60.00 | X-H torsion
[ 7907 7874 7873 7870 ] final   92.80 input   60.00 | X-H torsion

> <Gold.Protein.ActiveResidues>
 ASP403  THR404  ILE407  TYR408  ALA410  LYS411  TRP414  GLN425  TRP426  SER427 
 LYS428  LEU429  GLN430  VAL431  PHE432  ASP433  TYR453  SER462  ALA463  ILE464 

> <Gold.Protein.RotatedAtoms>
  205.0781   51.7513   61.5674 H   0  0  0  0  0  0  0  0  0  0  0  0  # atno 7907 bound_to 7874
  208.3144   51.0817   72.7207 H   0  0  0  0  0  0  0  0  0  0  0  0  # atno 9571 bound_to 9508
  209.0624   52.4962   73.0168 LP  0  0  0  0  0  0  0  0  0  0  0  0  # atno 27207 bound_to 9508
  207.6668   52.1313   73.7823 LP  0  0  0  0  0  0  0  0  0  0  0  0  # atno 27208 bound_to 9508
  204.6599   50.1827   61.4593 LP  0  0  0  0  0  0  0  0  0  0  0  0  # atno 27219 bound_to 7874
  204.7608   51.0987   60.1112 LP  0  0  0  0  0  0  0  0  0  0  0  0  # atno 27220 bound_to 7874

> <Gold.Score>
     Fitness  S(hb_ext) S(vdw_ext)  S(hb_int)    S(int)      intcor
     31.35       0.76      22.52       0.00      -0.37      -0.78

> <Gold.Goldscore.Fitness>
31.3481

> <Gold.Goldscore.Internal.Vdw>
-0.6748

> <Gold.Goldscore.Internal.Torsion>
-0.4749

> <Gold.Goldscore.External.Vdw>
22.5182

> <Gold.Goldscore.Internal.HBond>
0.0000

> <Gold.Goldscore.External.HBond>
0.7571

> <Gold.Goldscore.Internal.Correction>
-0.7782

> <Gold.Goldscore.Hbonds>
donor molecule, donor type, donor heavy atom, donor atom, acceptor molecule, acceptor atom, score
      P1  H  8001  8055       L1    17  0.11
      P1  H  8084  8134       L1     9  0.25
      L1  H     8    22       P1  8004  0.02

> <Gold.Goldscore.Internal.Vdw.Weighted>
-0.6748

> <Gold.Goldscore.Internal.Torsion.Weighted>
-0.4749

> <Gold.Goldscore.External.Vdw.Weighted>
30.9625

> <Gold.Goldscore.Internal.HBond.Weighted>
0.0000

> <Gold.Goldscore.External.HBond.Weighted>
0.7571

> <Gold.Goldscore.Internal.Correction.Weighted>
-0.7782

> <Gold.Rescore>
     Score     S(PLP)   S(hbond)     S(cho)   S(metal)  DE(clash)   DE(tors)     intcor
     33.55     -29.47       2.03       0.00       0.00       0.00       1.01       ----

> <Gold.PLP.Fitness>
33.5524

> <Gold.PLP.PLP>
-29.4733

> <Gold.PLP.part.hbond>
-3.2316

> <Gold.PLP.part.metal>
0.0000

> <Gold.PLP.part.buried>
-0.0692

> <Gold.PLP.part.nonpolar>
-27.6110

> <Gold.PLP.part.repulsive>
0.5549

> <Gold.PLP.ligand.clash>
0.0000

> <Gold.PLP.ligand.torsion>
1.0100

> <Gold.PLP.Chemscore.Hbond>
2.0330

> <Gold.PLP.Chemscore.CHOScore>
0.0000

> <Gold.PLP.Chemscore.Metal>
0.0000

> <Gold.Chemscore.Hbonds>
donor molecule, donor type, donor heavy atom, donor atom, acceptor molecule, acceptor atom, score
      L1  H     8    22       P1  8004  0.37
      P1  H  8001  8055       L1    17  0.04
      P1  H  8084  8134       L1     9  1.00

> <Gold.PLP.Chemscore.Internal.Correction>
   9.000000E+99

