#       Name:                CT1002167954
#       Creating user name   hitesit
#       Creation time:       Sun Apr 16 22:52:08 2023


#       File generated by GOLD software.
#

@<TRIPOS>MOLECULE
CT1002167954|ligand_prepared|mol2|1|dock8
    29    30     1
SMALL
NO_CHARGES


@<TRIPOS>ATOM
      1 C1         111.4856 246.0975 324.9783 C.3            1 RES1               0.0000
      2 C2         112.8777 245.4742 324.7495 C.ar           1 RES1               0.0000
      3 C3         111.6770 247.2078 326.0073 C.2            1 RES1               0.0000
      4 C4         111.0084 246.5876 323.6157 C.2            1 RES1               0.0000
      5 C5         110.4361 245.1000 325.5216 C.3            1 RES1               0.0000
      6 C6         113.0060 244.2347 324.1300 C.ar           1 RES1               0.0000
      7 C7         114.0408 246.1269 325.1494 C.ar           1 RES1               0.0000
      8 N8         111.6251 248.4963 325.5635 N.am           1 RES1               0.0000
      9 O9         111.9094 246.9561 327.1832 O.2            1 RES1               0.0000
     10 N10        110.8543 247.9374 323.4367 N.am           1 RES1               0.0000
     11 O11        110.7805 245.8182 322.6902 O.2            1 RES1               0.0000
     12 C12        109.0793 245.7280 325.7991 C.3            1 RES1               0.0000
     13 C13        114.2521 243.6694 323.9152 C.ar           1 RES1               0.0000
     14 C14        115.2859 245.5597 324.9339 C.ar           1 RES1               0.0000
     15 C15        111.1704 248.9160 324.3392 C.2            1 RES1               0.0000
     16 C16        115.3927 244.3316 324.3166 C.ar           1 RES1               0.0000
     17 O17        111.0554 250.1116 324.0852 O.2            1 RES1               0.0000
     18 H18        110.3080 244.2903 324.7926 H              1 RES1               0.0000
     19 H19        110.8170 244.6577 326.4504 H              1 RES1               0.0000
     20 H20        112.1195 243.6977 323.8095 H              1 RES1               0.0000
     21 H21        113.9808 247.0935 325.6379 H              1 RES1               0.0000
     22 H22        111.9549 249.2142 326.2008 H              1 RES1               0.0000
     23 H23        110.4679 248.2407 322.5484 H              1 RES1               0.0000
     24 H24        108.3807 244.9851 326.1782 H              1 RES1               0.0000
     25 H25        109.1654 246.5210 326.5391 H              1 RES1               0.0000
     26 H26        108.6594 246.1558 324.8911 H              1 RES1               0.0000
     27 H27        114.3307 242.7021 323.4302 H              1 RES1               0.0000
     28 H28        116.1809 246.0841 325.2520 H              1 RES1               0.0000
     29 H29        116.3688 243.8887 324.1479 H              1 RES1               0.0000
@<TRIPOS>BOND
    1    1    2 1     
    2    1    3 1     
    3    1    4 1     
    4    1    5 1     
    5    2    6 ar    
    6    2    7 ar    
    7    3    8 1     
    8    3    9 2     
    9    4   10 1     
   10    4   11 2     
   11    5   12 1     
   12    5   18 1     
   13    5   19 1     
   14    6   13 ar    
   15    6   20 1     
   16    7   14 ar    
   17    7   21 1     
   18    8   15 1     
   19    8   22 1     
   20   10   15 1     
   21   10   23 1     
   22   12   24 1     
   23   12   25 1     
   24   12   26 1     
   25   13   16 ar    
   26   13   27 1     
   27   14   16 ar    
   28   14   28 1     
   29   15   17 2     
   30   16   29 1     
@<TRIPOS>SUBSTRUCTURE
      1 RES1           1
@<TRIPOS>SET
DONOR_HYDROGENS      STATIC     ATOMS    <user>   **** ""
2 22 23
ATOM$RED        STATIC     ATOMS    COLORGROUP SYSTEM
2 22 23
@<TRIPOS>COMMENT
> <Gold.Version>
2022.3.0

> <Gold.Id.Protein>
unknown|5adf_clean|pdb

> <Gold.Protein.RotatedTorsions>
[ 8428 8423 8424 8425 ] final   -1.72 input   46.96 | X-H torsion
[ 8452 8445 8446 8447 ] final   -6.17 input  111.34 | X-H torsion
[ 8996 8992 8993 8994 ] final  127.09 input   44.62 | X-H torsion
[ 9030 9016 9017 9018 ] final  -12.10 input   32.56 | X-H torsion
[ 9074 9062 9063 9064 ] final   82.96 input   99.28 | X-H torsion
[ 9082 9073 9072 9070 ] final  154.68 input   59.99 | X-H torsion
[ 9108 9100 9101 9102 ] final   42.33 input   89.92 | X-H torsion
[ 9186 9177 9178 9179 ] final  171.71 input  116.56 | X-H torsion
[ 3596 3592 3593 3594 ] final  -81.19 input   84.58 | X-H torsion
[ 8978 8972 8973 8974 ] final   65.15 input   29.23 | X-H torsion
[ 9134 9130 9131 9132 ] final   34.91 input  126.15 | X-H torsion
[ 4890 4885 4884 4881 ] final  129.20 input   60.00 | X-H torsion
[ 8982 8977 8976 8973 ] final -161.62 input   60.00 | X-H torsion
[ 3570 3563 3564 3565 ] final  117.48 input  100.61 | X-H torsion
[ 3548 3542 3543 3544 ] final  -38.85 input   82.26 | X-H torsion
[ 8482 8476 8477 8478 ] final   93.57 input   53.28 | X-H torsion
[ 8948 8937 8938 8939 ] final -145.81 input   48.32 | X-H torsion
[ 12872 12863 12862 12860 ] final  -24.50 input   60.03 | X-H torsion
[ 5550 5545 5544 5541 ] final  132.94 input   60.00 | X-H torsion
[ 5574 5565 5566 5567 ] final   58.68 input   49.17 | X-H torsion
[ 8328 8319 8318 8316 ] final  -45.70 input   60.00 | X-H torsion
[ 5546 5540 5541 5542 ] final -129.44 input  103.84 | X-H torsion
[ 8508 8500 8501 8502 ] final  113.94 input   63.30 | X-H torsion
[ 8486 8481 8480 8477 ] final  133.95 input   60.02 | X-H torsion
[ 8536 8528 8529 8530 ] final  115.50 input   88.08 | X-H torsion
[ 12864 12852 12853 12854 ] final   26.43 input  106.44 | X-H torsion
[ 12900 12891 12892 12893 ] final  133.36 input   37.87 | X-H torsion
[ 9214 9206 9207 9208 ] final  -71.33 input   89.32 | X-H torsion
[ 11050 11043 11044 11045 ] final   69.55 input   52.80 | X-H torsion
[ 5606 5598 5599 5600 ] final  -96.12 input  119.27 | X-H torsion
[ 8570 8562 8563 8564 ] final   46.04 input   68.50 | X-H torsion
[ 13460 8400 8399 8398 ] final  -45.33 input   -0.00 | X-H torsion
[ 13464 8940 8939 8938 ] final  -83.72 input   -0.00 | X-H torsion
[ 13467 8995 8994 8993 ] final   72.28 input    0.00 | X-H torsion
[ 13470 9019 9018 9017 ] final -158.82 input    0.00 | X-H torsion
[ 13473 9065 9064 9063 ] final  -91.13 input   -0.00 | X-H torsion
[ 13478 9103 9102 9101 ] final  -84.57 input   -0.00 | X-H torsion
[ 13491 8975 8974 8973 ] final   86.05 input    0.00 | X-H torsion
[ 13493 8345 8344 8343 ] final   59.41 input    0.00 | X-H torsion
[ 13501 8448 8447 8446 ] final   33.58 input    0.00 | X-H torsion
[ 13503 3502 3501 3500 ] final -167.62 input    0.00 | X-H torsion
[ 13506 8426 8425 8424 ] final   18.33 input    0.00 | X-H torsion
[ 13514 5543 5542 5541 ] final  -25.23 input   -0.00 | X-H torsion
[ 13525 9180 9179 9178 ] final -129.23 input    0.00 | X-H torsion
[ 13531 5517 5516 5515 ] final  -53.65 input    0.00 | X-H torsion
[ 13535 8503 8502 8501 ] final -113.71 input   -0.00 | X-H torsion
[ 13538 5568 5567 5566 ] final -156.52 input   -0.00 | X-H torsion
[ 13540 8479 8478 8477 ] final  -59.05 input   -0.00 | X-H torsion
[ 13545 12894 12893 12892 ] final  104.75 input    0.00 | X-H torsion
[ 13547 12822 12821 12820 ] final -173.37 input   -0.00 | X-H torsion

> <Gold.Protein.ActiveResidues>
 TRP311  MET341  HIS342  TRP414  ALA417  ARG419  CYS420  VAL421  GLY422  LEU460 
 SER462  ASN481  SER482  GLN483  LEU484  ARG486  ALA502  ASN503  TRP566  TYR567 
 GLY568  LEU569  PRO570  ALA571  VAL572  SER573  ASN574  MET575  LEU576  PHE589 
 SER590  GLY591  TRP592  TYR593  MET594  GLY595  GLU597  ILE598  ARG601  ASP602 
 ARG608  ILE653  VAL654  TRP683  PHE709  GLU710  TYR711  GLN712  ASP714  HEM750 
 H4B760 

> <Gold.Protein.RotatedAtoms>
  120.5706  251.1003  330.0629 H   0  0  0  0  0  0  0  0  0  0  0  0  # atno 3548 bound_to 3542
  121.9143  247.9274  329.4561 H   0  0  0  0  0  0  0  0  0  0  0  0  # atno 3570 bound_to 3563
  124.9992  247.9251  328.4166 H   0  0  0  0  0  0  0  0  0  0  0  0  # atno 3596 bound_to 3592
  126.3064  246.3173  318.5819 H   0  0  0  0  0  0  0  0  0  0  0  0  # atno 4890 bound_to 4885
  105.9789  245.0500  317.8002 H   0  0  0  0  0  0  0  0  0  0  0  0  # atno 5546 bound_to 5540
  107.4965  243.0219  321.7549 H   0  0  0  0  0  0  0  0  0  0  0  0  # atno 5550 bound_to 5545
  108.5364  242.7943  318.7121 H   0  0  0  0  0  0  0  0  0  0  0  0  # atno 5574 bound_to 5565
  110.5682  243.0537  316.2638 H   0  0  0  0  0  0  0  0  0  0  0  0  # atno 5606 bound_to 5598
  111.2919  237.8705  321.0174 H   0  0  0  0  0  0  0  0  0  0  0  0  # atno 8328 bound_to 8319
  115.1281  242.3271  319.0424 H   0  0  0  0  0  0  0  0  0  0  0  0  # atno 8428 bound_to 8423
  114.8936  245.4368  317.7438 H   0  0  0  0  0  0  0  0  0  0  0  0  # atno 8452 bound_to 8445
  111.3731  246.1820  318.0913 H   0  0  0  0  0  0  0  0  0  0  0  0  # atno 8482 bound_to 8476
  109.1811  245.5678  315.6599 H   0  0  0  0  0  0  0  0  0  0  0  0  # atno 8486 bound_to 8481
  109.9283  248.0873  318.6818 H   0  0  0  0  0  0  0  0  0  0  0  0  # atno 8508 bound_to 8500
  110.9188  250.7305  319.2381 H   0  0  0  0  0  0  0  0  0  0  0  0  # atno 8536 bound_to 8528
  111.0021  255.1740  320.4076 H   0  0  0  0  0  0  0  0  0  0  0  0  # atno 8570 bound_to 8562
  115.8318  249.0305  314.8547 H   0  0  0  0  0  0  0  0  0  0  0  0  # atno 8948 bound_to 8937
  119.5008  246.9273  315.7539 H   0  0  0  0  0  0  0  0  0  0  0  0  # atno 8978 bound_to 8972
  119.6487  243.7618  314.2535 H   0  0  0  0  0  0  0  0  0  0  0  0  # atno 8982 bound_to 8977
  120.5035  245.0553  319.0740 H   0  0  0  0  0  0  0  0  0  0  0  0  # atno 8996 bound_to 8992
  122.4282  242.9089  321.0734 H   0  0  0  0  0  0  0  0  0  0  0  0  # atno 9030 bound_to 9016
  122.4767  238.6919  322.1172 H   0  0  0  0  0  0  0  0  0  0  0  0  # atno 9074 bound_to 9062
  115.1517  237.9694  321.4475 H   0  0  0  0  0  0  0  0  0  0  0  0  # atno 9082 bound_to 9073
  120.9329  239.7046  326.0841 H   0  0  0  0  0  0  0  0  0  0  0  0  # atno 9108 bound_to 9100
  122.3304  237.7625  329.1453 H   0  0  0  0  0  0  0  0  0  0  0  0  # atno 9134 bound_to 9130
  118.9625  238.5676  329.8449 H   0  0  0  0  0  0  0  0  0  0  0  0  # atno 9186 bound_to 9177
  116.2301  236.9555  328.7125 H   0  0  0  0  0  0  0  0  0  0  0  0  # atno 9214 bound_to 9206
  125.2941  238.0355  325.4868 H   0  0  0  0  0  0  0  0  0  0  0  0  # atno 11050 bound_to 11043
  109.6314  256.9733  324.2670 H   0  0  0  0  0  0  0  0  0  0  0  0  # atno 12864 bound_to 12852
  111.0424  250.5366  328.5754 H   0  0  0  0  0  0  0  0  0  0  0  0  # atno 12872 bound_to 12863
  107.5791  255.0098  322.1815 H   0  0  0  0  0  0  0  0  0  0  0  0  # atno 12900 bound_to 12891
  118.5371  243.0621  319.5685 LP  0  0  0  0  0  0  0  0  0  0  0  0  # atno 13460 bound_to 8400
  118.2044  243.2927  317.8844 LP  0  0  0  0  0  0  0  0  0  0  0  0  # atno 13461 bound_to 8400
  116.5561  241.8305  318.1683 LP  0  0  0  0  0  0  0  0  0  0  0  0  # atno 13462 bound_to 8423
  115.1288  244.7932  319.3522 LP  0  0  0  0  0  0  0  0  0  0  0  0  # atno 13463 bound_to 8445
  116.7012  246.7658  318.2473 LP  0  0  0  0  0  0  0  0  0  0  0  0  # atno 13464 bound_to 8940
  116.4030  245.7798  316.8549 LP  0  0  0  0  0  0  0  0  0  0  0  0  # atno 13465 bound_to 8940
  120.7313  243.9108  317.7703 LP  0  0  0  0  0  0  0  0  0  0  0  0  # atno 13466 bound_to 8992
  123.1909  241.8343  317.5691 LP  0  0  0  0  0  0  0  0  0  0  0  0  # atno 13467 bound_to 8995
  121.6776  241.2887  318.2110 LP  0  0  0  0  0  0  0  0  0  0  0  0  # atno 13468 bound_to 8995
  123.3188  242.5663  319.6116 LP  0  0  0  0  0  0  0  0  0  0  0  0  # atno 13469 bound_to 9016
  122.3177  241.5862  323.9179 LP  0  0  0  0  0  0  0  0  0  0  0  0  # atno 13470 bound_to 9019
  122.2448  242.5967  322.5130 LP  0  0  0  0  0  0  0  0  0  0  0  0  # atno 13471 bound_to 9019
  122.0753  240.3910  322.2192 LP  0  0  0  0  0  0  0  0  0  0  0  0  # atno 13472 bound_to 9062
  123.7401  237.8079  325.1125 LP  0  0  0  0  0  0  0  0  0  0  0  0  # atno 13473 bound_to 9065
  124.2925  239.3786  324.6351 LP  0  0  0  0  0  0  0  0  0  0  0  0  # atno 13474 bound_to 9065
  114.8135  238.9179  322.7258 LP  0  0  0  0  0  0  0  0  0  0  0  0  # atno 13475 bound_to 9073
  114.7491  237.2928  322.8717 LP  0  0  0  0  0  0  0  0  0  0  0  0  # atno 13476 bound_to 9073
  122.5410  239.9765  325.4521 LP  0  0  0  0  0  0  0  0  0  0  0  0  # atno 13477 bound_to 9100
  119.8648  238.5465  328.4649 LP  0  0  0  0  0  0  0  0  0  0  0  0  # atno 13478 bound_to 9103
  120.0447  237.7208  326.9530 LP  0  0  0  0  0  0  0  0  0  0  0  0  # atno 13479 bound_to 9103
  118.2205  236.9895  329.8392 LP  0  0  0  0  0  0  0  0  0  0  0  0  # atno 13480 bound_to 9177
  123.6433  247.8097  327.3230 LP  0  0  0  0  0  0  0  0  0  0  0  0  # atno 13489 bound_to 3592
  118.3933  247.1962  317.0774 LP  0  0  0  0  0  0  0  0  0  0  0  0  # atno 13490 bound_to 8972
  121.8264  246.8740  317.3767 LP  0  0  0  0  0  0  0  0  0  0  0  0  # atno 13491 bound_to 8975
  122.2095  245.5886  316.2809 LP  0  0  0  0  0  0  0  0  0  0  0  0  # atno 13492 bound_to 8975
  121.2946  236.7101  318.7289 LP  0  0  0  0  0  0  0  0  0  0  0  0  # atno 13493 bound_to 8345
  120.0319  237.5168  319.5978 LP  0  0  0  0  0  0  0  0  0  0  0  0  # atno 13494 bound_to 8345
  122.7678  237.2573  327.5291 LP  0  0  0  0  0  0  0  0  0  0  0  0  # atno 13495 bound_to 9130
  125.3093  245.1592  318.0219 LP  0  0  0  0  0  0  0  0  0  0  0  0  # atno 13496 bound_to 4885
  124.7141  246.3937  318.9098 LP  0  0  0  0  0  0  0  0  0  0  0  0  # atno 13497 bound_to 4885
  120.8729  243.8264  315.3232 LP  0  0  0  0  0  0  0  0  0  0  0  0  # atno 13498 bound_to 8977
  120.1870  245.2046  314.7787 LP  0  0  0  0  0  0  0  0  0  0  0  0  # atno 13499 bound_to 8977
  122.7026  249.3276  328.7637 LP  0  0  0  0  0  0  0  0  0  0  0  0  # atno 13500 bound_to 3563
  114.7770  247.5392  317.3469 LP  0  0  0  0  0  0  0  0  0  0  0  0  # atno 13501 bound_to 8448
  113.5477  248.7477  317.1789 LP  0  0  0  0  0  0  0  0  0  0  0  0  # atno 13502 bound_to 8448
  120.0257  248.8830  330.0598 LP  0  0  0  0  0  0  0  0  0  0  0  0  # atno 13503 bound_to 3502
  118.5714  249.3833  330.8565 LP  0  0  0  0  0  0  0  0  0  0  0  0  # atno 13504 bound_to 3502
  119.9683  251.7881  328.5747 LP  0  0  0  0  0  0  0  0  0  0  0  0  # atno 13505 bound_to 3542
  113.2171  243.3702  316.7654 LP  0  0  0  0  0  0  0  0  0  0  0  0  # atno 13506 bound_to 8426
  112.6493  244.9245  317.2770 LP  0  0  0  0  0  0  0  0  0  0  0  0  # atno 13507 bound_to 8426
  112.4577  247.5183  318.3815 LP  0  0  0  0  0  0  0  0  0  0  0  0  # atno 13510 bound_to 8476
  115.4523  248.1726  316.3287 LP  0  0  0  0  0  0  0  0  0  0  0  0  # atno 13511 bound_to 8937
  109.6629  246.5155  319.4069 LP  0  0  0  0  0  0  0  0  0  0  0  0  # atno 13514 bound_to 5543
  110.7857  245.2115  319.6046 LP  0  0  0  0  0  0  0  0  0  0  0  0  # atno 13515 bound_to 5543
  111.0772  251.7002  329.7127 LP  0  0  0  0  0  0  0  0  0  0  0  0  # atno 13516 bound_to 12863
  112.2113  251.6684  328.5382 LP  0  0  0  0  0  0  0  0  0  0  0  0  # atno 13517 bound_to 12863
  107.5517  242.8433  320.1385 LP  0  0  0  0  0  0  0  0  0  0  0  0  # atno 13518 bound_to 5545
  106.1123  242.9162  320.9061 LP  0  0  0  0  0  0  0  0  0  0  0  0  # atno 13519 bound_to 5545
  109.0201  244.4701  318.8464 LP  0  0  0  0  0  0  0  0  0  0  0  0  # atno 13520 bound_to 5565
  112.6535  238.7600  321.0753 LP  0  0  0  0  0  0  0  0  0  0  0  0  # atno 13523 bound_to 8319
  112.4121  237.5603  322.1565 LP  0  0  0  0  0  0  0  0  0  0  0  0  # atno 13524 bound_to 8319
  114.3423  236.7679  329.0887 LP  0  0  0  0  0  0  0  0  0  0  0  0  # atno 13525 bound_to 9180
  114.4171  238.2631  328.2177 LP  0  0  0  0  0  0  0  0  0  0  0  0  # atno 13526 bound_to 9180
  106.7361  243.5013  318.0744 LP  0  0  0  0  0  0  0  0  0  0  0  0  # atno 13529 bound_to 5540
  110.4783  249.3121  317.5705 LP  0  0  0  0  0  0  0  0  0  0  0  0  # atno 13530 bound_to 8500
  107.8799  246.0111  316.0182 LP  0  0  0  0  0  0  0  0  0  0  0  0  # atno 13531 bound_to 5517
  107.1070  246.8673  317.3103 LP  0  0  0  0  0  0  0  0  0  0  0  0  # atno 13532 bound_to 5517
  109.6961  246.0328  317.1322 LP  0  0  0  0  0  0  0  0  0  0  0  0  # atno 13533 bound_to 8481
  110.5157  244.8913  316.3003 LP  0  0  0  0  0  0  0  0  0  0  0  0  # atno 13534 bound_to 8481
  107.8637  252.7005  319.4476 LP  0  0  0  0  0  0  0  0  0  0  0  0  # atno 13535 bound_to 8503
  107.6123  251.4352  320.6034 LP  0  0  0  0  0  0  0  0  0  0  0  0  # atno 13536 bound_to 8503
  109.3386  251.3869  318.9005 LP  0  0  0  0  0  0  0  0  0  0  0  0  # atno 13537 bound_to 8528
  109.2517  241.3134  315.6773 LP  0  0  0  0  0  0  0  0  0  0  0  0  # atno 13538 bound_to 5568
  108.4489  242.2600  316.8854 LP  0  0  0  0  0  0  0  0  0  0  0  0  # atno 13539 bound_to 5568
  109.9754  249.8582  315.3851 LP  0  0  0  0  0  0  0  0  0  0  0  0  # atno 13540 bound_to 8479
  108.4943  249.1607  315.9509 LP  0  0  0  0  0  0  0  0  0  0  0  0  # atno 13541 bound_to 8479
  104.3092  253.1840  323.3484 LP  0  0  0  0  0  0  0  0  0  0  0  0  # atno 13545 bound_to 12894
  104.8591  252.8304  321.7444 LP  0  0  0  0  0  0  0  0  0  0  0  0  # atno 13546 bound_to 12894
  109.7636  254.9076  322.0950 LP  0  0  0  0  0  0  0  0  0  0  0  0  # atno 13547 bound_to 12822
  111.2378  255.6501  321.5703 LP  0  0  0  0  0  0  0  0  0  0  0  0  # atno 13548 bound_to 12822
  110.6393  255.5648  324.4937 LP  0  0  0  0  0  0  0  0  0  0  0  0  # atno 13549 bound_to 12852
  106.5696  254.6885  323.5719 LP  0  0  0  0  0  0  0  0  0  0  0  0  # atno 13550 bound_to 12891

> <Gold.Score>
     Fitness  S(hb_ext) S(vdw_ext)  S(hb_int)    S(int)      intcor
     37.76      12.00      19.85       0.00      -1.53      -0.76

> <Gold.Goldscore.Fitness>
37.7648

> <Gold.Goldscore.Internal.Vdw>
-1.9203

> <Gold.Goldscore.Internal.Torsion>
-0.3776

> <Gold.Goldscore.External.Vdw>
19.8529

> <Gold.Goldscore.Internal.HBond>
0.0000

> <Gold.Goldscore.External.HBond>
12.0000

> <Gold.Goldscore.Internal.Correction>
-0.7650

> <Gold.Goldscore.Hbonds>
donor molecule, donor type, donor heavy atom, donor atom, acceptor molecule, acceptor atom, score
      L1  H     8    22       P1 13310  1.00
      L1  H    10    23       P1  8507  1.00

> <Gold.Goldscore.Internal.Vdw.Weighted>
-1.9203

> <Gold.Goldscore.Internal.Torsion.Weighted>
-0.3776

> <Gold.Goldscore.External.Vdw.Weighted>
27.2978

> <Gold.Goldscore.Internal.HBond.Weighted>
0.0000

> <Gold.Goldscore.External.HBond.Weighted>
12.0000

> <Gold.Goldscore.Internal.Correction.Weighted>
-0.7650

> <Gold.Rescore>
     Score     S(PLP)   S(hbond)     S(cho)   S(metal)  DE(clash)   DE(tors)     intcor
     34.36     -30.71       1.76       0.00       0.00       0.22       0.71       ----

> <Gold.PLP.Fitness>
34.3583

> <Gold.PLP.PLP>
-30.7136

> <Gold.PLP.part.hbond>
-2.0000

> <Gold.PLP.part.metal>
0.0000

> <Gold.PLP.part.buried>
-5.7760

> <Gold.PLP.part.nonpolar>
-25.6914

> <Gold.PLP.part.repulsive>
1.4217

> <Gold.PLP.ligand.clash>
0.2213

> <Gold.PLP.ligand.torsion>
0.7070

> <Gold.PLP.Chemscore.Hbond>
1.7600

> <Gold.PLP.Chemscore.CHOScore>
0.0000

> <Gold.PLP.Chemscore.Metal>
0.0000

> <Gold.Chemscore.Hbonds>
donor molecule, donor type, donor heavy atom, donor atom, acceptor molecule, acceptor atom, score
      L1  H     8    22       P1 13310  0.91
      L1  H    10    23       P1  8507  1.00

> <Gold.PLP.Chemscore.Internal.Correction>
   9.000000E+99

#       Name:                CT1002167954
#       Creating user name   hitesit
#       Creation time:       Sun Apr 16 22:52:02 2023


#       File generated by GOLD software.
#

@<TRIPOS>MOLECULE
CT1002167954|ligand_prepared|mol2|1|dock1
    29    30     1
SMALL
NO_CHARGES


@<TRIPOS>ATOM
      1 C1         113.0296 241.1338 325.8894 C.3            1 RES1               0.0000
      2 C2         113.9470 242.0533 325.0578 C.ar           1 RES1               0.0000
      3 C3         111.6064 241.3990 325.4075 C.2            1 RES1               0.0000
      4 C4         113.5152 239.7098 325.6416 C.2            1 RES1               0.0000
      5 C5         113.0907 241.4013 327.4114 C.3            1 RES1               0.0000
      6 C6         114.4746 241.6191 323.8454 C.ar           1 RES1               0.0000
      7 C7         114.2718 243.3371 325.4878 C.ar           1 RES1               0.0000
      8 N8         111.0143 240.4465 324.6315 N.am           1 RES1               0.0000
      9 O9         111.0270 242.4454 325.6713 O.2            1 RES1               0.0000
     10 N10        112.6747 238.8501 324.9842 N.am           1 RES1               0.0000
     11 O11        114.6245 239.3294 325.9951 O.2            1 RES1               0.0000
     12 C12        112.4669 240.2993 328.2531 C.3            1 RES1               0.0000
     13 C13        115.2948 242.4395 323.0889 C.ar           1 RES1               0.0000
     14 C14        115.0925 244.1559 324.7298 C.ar           1 RES1               0.0000
     15 C15        111.4584 239.1628 324.4408 C.2            1 RES1               0.0000
     16 C16        115.6039 243.7085 323.5302 C.ar           1 RES1               0.0000
     17 O17        110.7847 238.3486 323.8161 O.2            1 RES1               0.0000
     18 H18        114.1404 241.5202 327.7071 H              1 RES1               0.0000
     19 H19        112.5732 242.3447 327.6251 H              1 RES1               0.0000
     20 H20        114.2443 240.6227 323.4832 H              1 RES1               0.0000
     21 H21        113.8817 243.7099 326.4288 H              1 RES1               0.0000
     22 H22        110.1625 240.7135 324.1483 H              1 RES1               0.0000
     23 H23        112.9843 237.8879 324.8914 H              1 RES1               0.0000
     24 H24        112.5364 240.5370 329.3126 H              1 RES1               0.0000
     25 H25        111.4158 240.1710 328.0029 H              1 RES1               0.0000
     26 H26        112.9737 239.3514 328.0845 H              1 RES1               0.0000
     27 H27        115.6959 242.0822 322.1462 H              1 RES1               0.0000
     28 H28        115.3336 245.1537 325.0813 H              1 RES1               0.0000
     29 H29        116.2462 244.3512 322.9372 H              1 RES1               0.0000
@<TRIPOS>BOND
    1    1    2 1     
    2    1    3 1     
    3    1    4 1     
    4    1    5 1     
    5    2    6 ar    
    6    2    7 ar    
    7    3    8 1     
    8    3    9 2     
    9    4   10 1     
   10    4   11 2     
   11    5   12 1     
   12    5   18 1     
   13    5   19 1     
   14    6   13 ar    
   15    6   20 1     
   16    7   14 ar    
   17    7   21 1     
   18    8   15 1     
   19    8   22 1     
   20   10   15 1     
   21   10   23 1     
   22   12   24 1     
   23   12   25 1     
   24   12   26 1     
   25   13   16 ar    
   26   13   27 1     
   27   14   16 ar    
   28   14   28 1     
   29   15   17 2     
   30   16   29 1     
@<TRIPOS>SUBSTRUCTURE
      1 RES1           1
@<TRIPOS>SET
DONOR_HYDROGENS      STATIC     ATOMS    <user>   **** ""
2 22 23
ATOM$RED        STATIC     ATOMS    COLORGROUP SYSTEM
2 22 23
@<TRIPOS>COMMENT
> <Gold.Version>
2022.3.0

> <Gold.Id.Protein>
unknown|5adf_clean|pdb

> <Gold.Protein.RotatedTorsions>
[ 8428 8423 8424 8425 ] final  140.52 input   46.96 | X-H torsion
[ 8452 8445 8446 8447 ] final   84.46 input  111.34 | X-H torsion
[ 8996 8992 8993 8994 ] final   60.62 input   44.62 | X-H torsion
[ 9030 9016 9017 9018 ] final  170.99 input   32.56 | X-H torsion
[ 9074 9062 9063 9064 ] final   19.73 input   99.28 | X-H torsion
[ 9082 9073 9072 9070 ] final   -3.19 input   59.99 | X-H torsion
[ 9108 9100 9101 9102 ] final   -3.55 input   89.92 | X-H torsion
[ 9186 9177 9178 9179 ] final  -49.08 input  116.56 | X-H torsion
[ 3596 3592 3593 3594 ] final  147.19 input   84.58 | X-H torsion
[ 8978 8972 8973 8974 ] final   66.60 input   29.23 | X-H torsion
[ 9134 9130 9131 9132 ] final   -9.92 input  126.15 | X-H torsion
[ 4890 4885 4884 4881 ] final  -40.57 input   60.00 | X-H torsion
[ 8982 8977 8976 8973 ] final -175.11 input   60.00 | X-H torsion
[ 3570 3563 3564 3565 ] final  148.79 input  100.61 | X-H torsion
[ 3548 3542 3543 3544 ] final   45.32 input   82.26 | X-H torsion
[ 8482 8476 8477 8478 ] final  -91.22 input   53.28 | X-H torsion
[ 8948 8937 8938 8939 ] final  152.23 input   48.32 | X-H torsion
[ 12872 12863 12862 12860 ] final   86.21 input   60.03 | X-H torsion
[ 5550 5545 5544 5541 ] final  133.01 input   60.00 | X-H torsion
[ 5574 5565 5566 5567 ] final  158.84 input   49.17 | X-H torsion
[ 8328 8319 8318 8316 ] final  138.21 input   60.00 | X-H torsion
[ 5546 5540 5541 5542 ] final  -46.75 input  103.84 | X-H torsion
[ 8508 8500 8501 8502 ] final -130.85 input   63.30 | X-H torsion
[ 8486 8481 8480 8477 ] final -122.95 input   60.02 | X-H torsion
[ 8536 8528 8529 8530 ] final -135.94 input   88.08 | X-H torsion
[ 12864 12852 12853 12854 ] final -135.94 input  106.44 | X-H torsion
[ 12900 12891 12892 12893 ] final  -74.08 input   37.87 | X-H torsion
[ 9214 9206 9207 9208 ] final -158.49 input   89.32 | X-H torsion
[ 11050 11043 11044 11045 ] final  173.21 input   52.80 | X-H torsion
[ 5606 5598 5599 5600 ] final   -4.20 input  119.27 | X-H torsion
[ 8570 8562 8563 8564 ] final  111.79 input   68.50 | X-H torsion
[ 13460 8400 8399 8398 ] final   61.51 input   -0.00 | X-H torsion
[ 13464 8940 8939 8938 ] final   14.10 input   -0.00 | X-H torsion
[ 13467 8995 8994 8993 ] final   99.15 input    0.00 | X-H torsion
[ 13470 9019 9018 9017 ] final   50.33 input    0.00 | X-H torsion
[ 13473 9065 9064 9063 ] final  149.79 input   -0.00 | X-H torsion
[ 13478 9103 9102 9101 ] final -147.35 input   -0.00 | X-H torsion
[ 13491 8975 8974 8973 ] final -169.35 input    0.00 | X-H torsion
[ 13493 8345 8344 8343 ] final    8.21 input    0.00 | X-H torsion
[ 13501 8448 8447 8446 ] final  -30.57 input    0.00 | X-H torsion
[ 13503 3502 3501 3500 ] final  115.94 input    0.00 | X-H torsion
[ 13506 8426 8425 8424 ] final  111.91 input    0.00 | X-H torsion
[ 13514 5543 5542 5541 ] final   -4.61 input   -0.00 | X-H torsion
[ 13525 9180 9179 9178 ] final   38.39 input    0.00 | X-H torsion
[ 13531 5517 5516 5515 ] final  -75.71 input    0.00 | X-H torsion
[ 13535 8503 8502 8501 ] final   60.94 input   -0.00 | X-H torsion
[ 13538 5568 5567 5566 ] final  166.28 input   -0.00 | X-H torsion
[ 13540 8479 8478 8477 ] final  163.22 input   -0.00 | X-H torsion
[ 13545 12894 12893 12892 ] final  -23.33 input    0.00 | X-H torsion
[ 13547 12822 12821 12820 ] final -104.45 input   -0.00 | X-H torsion

> <Gold.Protein.ActiveResidues>
 TRP311  MET341  HIS342  TRP414  ALA417  ARG419  CYS420  VAL421  GLY422  LEU460 
 SER462  ASN481  SER482  GLN483  LEU484  ARG486  ALA502  ASN503  TRP566  TYR567 
 GLY568  LEU569  PRO570  ALA571  VAL572  SER573  ASN574  MET575  LEU576  PHE589 
 SER590  GLY591  TRP592  TYR593  MET594  GLY595  GLU597  ILE598  ARG601  ASP602 
 ARG608  ILE653  VAL654  TRP683  PHE709  GLU710  TYR711  GLN712  ASP714  HEM750 
 H4B760 

> <Gold.Protein.RotatedAtoms>
  121.0080  251.9248  329.3366 H   0  0  0  0  0  0  0  0  0  0  0  0  # atno 3548 bound_to 3542
  121.8911  248.2683  329.7924 H   0  0  0  0  0  0  0  0  0  0  0  0  # atno 3570 bound_to 3563
  123.7823  247.1961  327.6637 H   0  0  0  0  0  0  0  0  0  0  0  0  # atno 3596 bound_to 3592
  124.6575  245.4797  318.3352 H   0  0  0  0  0  0  0  0  0  0  0  0  # atno 4890 bound_to 4885
  106.9163  244.5571  317.3193 H   0  0  0  0  0  0  0  0  0  0  0  0  # atno 5546 bound_to 5540
  107.4954  243.0219  321.7555 H   0  0  0  0  0  0  0  0  0  0  0  0  # atno 5550 bound_to 5545
  109.1253  243.6437  319.5992 H   0  0  0  0  0  0  0  0  0  0  0  0  # atno 5574 bound_to 5565
  111.2023  242.0173  316.6314 H   0  0  0  0  0  0  0  0  0  0  0  0  # atno 5606 bound_to 5598
  112.9511  238.3006  321.7687 H   0  0  0  0  0  0  0  0  0  0  0  0  # atno 8328 bound_to 8319
  116.1120  241.5940  317.9106 H   0  0  0  0  0  0  0  0  0  0  0  0  # atno 8428 bound_to 8423
  115.5715  245.7703  318.7515 H   0  0  0  0  0  0  0  0  0  0  0  0  # atno 8452 bound_to 8445
  112.5178  247.4911  318.3468 H   0  0  0  0  0  0  0  0  0  0  0  0  # atno 8482 bound_to 8476
  110.3949  244.8454  316.0563 H   0  0  0  0  0  0  0  0  0  0  0  0  # atno 8486 bound_to 8481
  109.9227  248.6116  317.3008 H   0  0  0  0  0  0  0  0  0  0  0  0  # atno 8508 bound_to 8500
  109.5940  250.8716  319.7410 H   0  0  0  0  0  0  0  0  0  0  0  0  # atno 8536 bound_to 8528
  110.0582  255.1288  320.2319 H   0  0  0  0  0  0  0  0  0  0  0  0  # atno 8570 bound_to 8562
  115.7106  249.4763  315.6378 H   0  0  0  0  0  0  0  0  0  0  0  0  # atno 8948 bound_to 8937
  119.4841  246.9184  315.7421 H   0  0  0  0  0  0  0  0  0  0  0  0  # atno 8978 bound_to 8972
  119.7565  243.5914  314.3409 H   0  0  0  0  0  0  0  0  0  0  0  0  # atno 8982 bound_to 8977
  120.3051  244.1058  319.1568 H   0  0  0  0  0  0  0  0  0  0  0  0  # atno 8996 bound_to 8992
  123.2850  242.5634  319.5755 H   0  0  0  0  0  0  0  0  0  0  0  0  # atno 9030 bound_to 9016
  123.0538  239.3064  322.5097 H   0  0  0  0  0  0  0  0  0  0  0  0  # atno 9074 bound_to 9062
  114.6946  238.4946  323.1485 H   0  0  0  0  0  0  0  0  0  0  0  0  # atno 9082 bound_to 9073
  121.2104  239.1381  325.8003 H   0  0  0  0  0  0  0  0  0  0  0  0  # atno 9108 bound_to 9100
  121.8597  237.9250  328.6882 H   0  0  0  0  0  0  0  0  0  0  0  0  # atno 9134 bound_to 9130
  118.0805  237.2779  330.3557 H   0  0  0  0  0  0  0  0  0  0  0  0  # atno 9186 bound_to 9177
  116.6205  237.0946  327.5552 H   0  0  0  0  0  0  0  0  0  0  0  0  # atno 9214 bound_to 9206
  126.4154  237.7893  324.7151 H   0  0  0  0  0  0  0  0  0  0  0  0  # atno 11050 bound_to 11043
  110.6685  255.5711  324.2270 H   0  0  0  0  0  0  0  0  0  0  0  0  # atno 12864 bound_to 12852
  112.1912  251.5543  328.4393 H   0  0  0  0  0  0  0  0  0  0  0  0  # atno 12872 bound_to 12863
  106.6984  255.0739  323.6563 H   0  0  0  0  0  0  0  0  0  0  0  0  # atno 12900 bound_to 12891
  118.7801  242.5439  318.3009 LP  0  0  0  0  0  0  0  0  0  0  0  0  # atno 13460 bound_to 8400
  117.9614  243.8109  319.1521 LP  0  0  0  0  0  0  0  0  0  0  0  0  # atno 13461 bound_to 8400
  115.5921  242.5487  319.2773 LP  0  0  0  0  0  0  0  0  0  0  0  0  # atno 13462 bound_to 8423
  114.4685  244.4683  318.3708 LP  0  0  0  0  0  0  0  0  0  0  0  0  # atno 13463 bound_to 8445
  115.9642  246.7818  317.1700 LP  0  0  0  0  0  0  0  0  0  0  0  0  # atno 13464 bound_to 8940
  117.1400  245.7638  317.9323 LP  0  0  0  0  0  0  0  0  0  0  0  0  # atno 13465 bound_to 8940
  120.9238  244.8318  317.6900 LP  0  0  0  0  0  0  0  0  0  0  0  0  # atno 13466 bound_to 8992
  123.2957  241.5280  317.8082 LP  0  0  0  0  0  0  0  0  0  0  0  0  # atno 13467 bound_to 8995
  121.5727  241.5950  317.9718 LP  0  0  0  0  0  0  0  0  0  0  0  0  # atno 13468 bound_to 8995
  122.4764  242.9059  321.0843 LP  0  0  0  0  0  0  0  0  0  0  0  0  # atno 13469 bound_to 9016
  121.8287  242.5020  322.6017 LP  0  0  0  0  0  0  0  0  0  0  0  0  # atno 13470 bound_to 9019
  122.7338  241.6809  323.8292 LP  0  0  0  0  0  0  0  0  0  0  0  0  # atno 13471 bound_to 9019
  121.5145  239.7938  321.8378 LP  0  0  0  0  0  0  0  0  0  0  0  0  # atno 13472 bound_to 9062
  124.3013  239.1416  325.4805 LP  0  0  0  0  0  0  0  0  0  0  0  0  # atno 13473 bound_to 9065
  123.7313  238.0449  324.2671 LP  0  0  0  0  0  0  0  0  0  0  0  0  # atno 13474 bound_to 9065
  114.9013  237.1180  322.3056 LP  0  0  0  0  0  0  0  0  0  0  0  0  # atno 13475 bound_to 9073
  115.1215  238.5640  321.5796 LP  0  0  0  0  0  0  0  0  0  0  0  0  # atno 13476 bound_to 9073
  122.2716  240.5266  325.7277 LP  0  0  0  0  0  0  0  0  0  0  0  0  # atno 13477 bound_to 9100
  119.8638  237.6455  328.4184 LP  0  0  0  0  0  0  0  0  0  0  0  0  # atno 13478 bound_to 9103
  120.0457  238.6219  326.9994 LP  0  0  0  0  0  0  0  0  0  0  0  0  # atno 13479 bound_to 9103
  119.0925  238.2645  329.3342 LP  0  0  0  0  0  0  0  0  0  0  0  0  # atno 13480 bound_to 9177
  124.8398  248.5265  328.0632 LP  0  0  0  0  0  0  0  0  0  0  0  0  # atno 13489 bound_to 3592
  118.4097  247.2050  317.0890 LP  0  0  0  0  0  0  0  0  0  0  0  0  # atno 13490 bound_to 8972
  122.6422  245.7830  317.2280 LP  0  0  0  0  0  0  0  0  0  0  0  0  # atno 13491 bound_to 8975
  121.3937  246.6796  316.4296 LP  0  0  0  0  0  0  0  0  0  0  0  0  # atno 13492 bound_to 8975
  121.0531  236.3619  319.3458 LP  0  0  0  0  0  0  0  0  0  0  0  0  # atno 13493 bound_to 8345
  120.2734  237.8649  318.9809 LP  0  0  0  0  0  0  0  0  0  0  0  0  # atno 13494 bound_to 8345
  123.2257  237.0992  327.9737 LP  0  0  0  0  0  0  0  0  0  0  0  0  # atno 13495 bound_to 9130
  125.4152  246.7499  319.0146 LP  0  0  0  0  0  0  0  0  0  0  0  0  # atno 13496 bound_to 4885
  126.2677  245.6460  318.1652 LP  0  0  0  0  0  0  0  0  0  0  0  0  # atno 13497 bound_to 4885
  120.9282  244.0332  315.3799 LP  0  0  0  0  0  0  0  0  0  0  0  0  # atno 13498 bound_to 8977
  120.0231  245.1695  314.6340 LP  0  0  0  0  0  0  0  0  0  0  0  0  # atno 13499 bound_to 8977
  122.7251  248.9971  328.4378 LP  0  0  0  0  0  0  0  0  0  0  0  0  # atno 13500 bound_to 3563
  114.6479  248.1957  317.9781 LP  0  0  0  0  0  0  0  0  0  0  0  0  # atno 13501 bound_to 8448
  113.6769  248.0911  316.5477 LP  0  0  0  0  0  0  0  0  0  0  0  0  # atno 13502 bound_to 8448
  119.0345  248.9389  329.6565 LP  0  0  0  0  0  0  0  0  0  0  0  0  # atno 13503 bound_to 3502
  119.5626  249.3273  331.2597 LP  0  0  0  0  0  0  0  0  0  0  0  0  # atno 13504 bound_to 3502
  119.5397  250.9802  329.2864 LP  0  0  0  0  0  0  0  0  0  0  0  0  # atno 13505 bound_to 3542
  112.6089  243.8444  317.7649 LP  0  0  0  0  0  0  0  0  0  0  0  0  # atno 13506 bound_to 8426
  113.2574  244.4504  316.2775 LP  0  0  0  0  0  0  0  0  0  0  0  0  # atno 13507 bound_to 8426
  111.3310  246.2298  318.1300 LP  0  0  0  0  0  0  0  0  0  0  0  0  # atno 13510 bound_to 8476
  115.5709  247.7364  315.5625 LP  0  0  0  0  0  0  0  0  0  0  0  0  # atno 13511 bound_to 8937
  109.6238  246.4538  319.7082 LP  0  0  0  0  0  0  0  0  0  0  0  0  # atno 13514 bound_to 5543
  110.8248  245.2732  319.3033 LP  0  0  0  0  0  0  0  0  0  0  0  0  # atno 13515 bound_to 5543
  110.9408  250.5430  328.6886 LP  0  0  0  0  0  0  0  0  0  0  0  0  # atno 13516 bound_to 12863
  111.1911  251.8010  329.6992 LP  0  0  0  0  0  0  0  0  0  0  0  0  # atno 13517 bound_to 12863
  107.5528  242.8434  320.1392 LP  0  0  0  0  0  0  0  0  0  0  0  0  # atno 13518 bound_to 5545
  106.1123  242.9161  320.9049 LP  0  0  0  0  0  0  0  0  0  0  0  0  # atno 13519 bound_to 5545
  108.4488  243.6462  317.9859 LP  0  0  0  0  0  0  0  0  0  0  0  0  # atno 13520 bound_to 5565
  111.6260  237.3565  321.8006 LP  0  0  0  0  0  0  0  0  0  0  0  0  # atno 13523 bound_to 8319
  111.7686  238.5306  320.6746 LP  0  0  0  0  0  0  0  0  0  0  0  0  # atno 13524 bound_to 8319
  114.4339  238.3381  328.3880 LP  0  0  0  0  0  0  0  0  0  0  0  0  # atno 13525 bound_to 9180
  114.3256  236.6929  328.9185 LP  0  0  0  0  0  0  0  0  0  0  0  0  # atno 13526 bound_to 9180
  105.8149  243.9857  318.5471 LP  0  0  0  0  0  0  0  0  0  0  0  0  # atno 13529 bound_to 5540
  110.4839  248.7917  318.9410 LP  0  0  0  0  0  0  0  0  0  0  0  0  # atno 13530 bound_to 8500
  108.0901  245.9527  316.2676 LP  0  0  0  0  0  0  0  0  0  0  0  0  # atno 13531 bound_to 5517
  106.8968  246.9256  317.0609 LP  0  0  0  0  0  0  0  0  0  0  0  0  # atno 13532 bound_to 5517
  109.0648  245.7549  315.8265 LP  0  0  0  0  0  0  0  0  0  0  0  0  # atno 13533 bound_to 8481
  109.9254  245.8963  317.2071 LP  0  0  0  0  0  0  0  0  0  0  0  0  # atno 13534 bound_to 8481
  107.5579  251.4044  320.5521 LP  0  0  0  0  0  0  0  0  0  0  0  0  # atno 13535 bound_to 8503
  107.9181  252.7314  319.4989 LP  0  0  0  0  0  0  0  0  0  0  0  0  # atno 13536 bound_to 8503
  110.6484  251.2473  318.4034 LP  0  0  0  0  0  0  0  0  0  0  0  0  # atno 13537 bound_to 8528
  109.0753  241.7827  315.4451 LP  0  0  0  0  0  0  0  0  0  0  0  0  # atno 13538 bound_to 5568
  108.6253  241.7907  317.1177 LP  0  0  0  0  0  0  0  0  0  0  0  0  # atno 13539 bound_to 5568
  108.5957  249.7181  316.2139 LP  0  0  0  0  0  0  0  0  0  0  0  0  # atno 13540 bound_to 8479
  109.8740  249.3008  315.1221 LP  0  0  0  0  0  0  0  0  0  0  0  0  # atno 13541 bound_to 8479
  105.3931  253.0427  322.2391 LP  0  0  0  0  0  0  0  0  0  0  0  0  # atno 13545 bound_to 12894
  103.7753  252.9716  322.8537 LP  0  0  0  0  0  0  0  0  0  0  0  0  # atno 13546 bound_to 12894
  109.8132  255.7478  321.5929 LP  0  0  0  0  0  0  0  0  0  0  0  0  # atno 13547 bound_to 12822
  111.1882  254.8099  322.0725 LP  0  0  0  0  0  0  0  0  0  0  0  0  # atno 13548 bound_to 12822
  109.6241  256.9374  324.5329 LP  0  0  0  0  0  0  0  0  0  0  0  0  # atno 13549 bound_to 12852
  107.4290  254.6259  322.1329 LP  0  0  0  0  0  0  0  0  0  0  0  0  # atno 13550 bound_to 12891

> <Gold.Score>
     Fitness  S(hb_ext) S(vdw_ext)  S(hb_int)    S(int)      intcor
     36.99       0.63      26.79       0.00      -0.47      -0.76

> <Gold.Goldscore.Fitness>
36.9947

> <Gold.Goldscore.Internal.Vdw>
-0.5667

> <Gold.Goldscore.Internal.Torsion>
-0.6715

> <Gold.Goldscore.External.Vdw>
26.7942

> <Gold.Goldscore.Internal.HBond>
0.0000

> <Gold.Goldscore.External.HBond>
0.6258

> <Gold.Goldscore.Internal.Correction>
-0.7650

> <Gold.Goldscore.Hbonds>
donor molecule, donor type, donor heavy atom, donor atom, acceptor molecule, acceptor atom, score
      P1  H  9073  9082       L1    11  0.01
      P1  H  5687  5700       L1    17  0.02
      P1  H  9513  9527       L1    17  0.03
      L1  H    10    23       P1  9345  0.05

> <Gold.Goldscore.Internal.Vdw.Weighted>
-0.5667

> <Gold.Goldscore.Internal.Torsion.Weighted>
-0.6715

> <Gold.Goldscore.External.Vdw.Weighted>
36.8421

> <Gold.Goldscore.Internal.HBond.Weighted>
0.0000

> <Gold.Goldscore.External.HBond.Weighted>
0.6258

> <Gold.Goldscore.Internal.Correction.Weighted>
-0.7650

> <Gold.Rescore>
     Score     S(PLP)   S(hbond)     S(cho)   S(metal)  DE(clash)   DE(tors)     intcor
      8.29     -10.28       0.13       0.00       0.00       0.00       1.20       ----

> <Gold.PLP.Fitness>
8.2949

> <Gold.PLP.PLP>
-10.2816

> <Gold.PLP.part.hbond>
-2.4341

> <Gold.PLP.part.metal>
0.0000

> <Gold.PLP.part.buried>
11.1579

> <Gold.PLP.part.nonpolar>
-25.4256

> <Gold.PLP.part.repulsive>
1.8973

> <Gold.PLP.ligand.clash>
0.0000

> <Gold.PLP.ligand.torsion>
1.1952

> <Gold.PLP.Chemscore.Hbond>
0.1346

> <Gold.PLP.Chemscore.CHOScore>
0.0000

> <Gold.PLP.Chemscore.Metal>
0.0000

> <Gold.Chemscore.Hbonds>
donor molecule, donor type, donor heavy atom, donor atom, acceptor molecule, acceptor atom, score
      L1  H    10    23       P1  9345  0.64
      P1  H  5687  5700       L1    17  0.51
      P1  H  9513  9527       L1    17  0.29

> <Gold.PLP.Chemscore.Internal.Correction>
   9.000000E+99

#       Name:                CT1002167954
#       Creating user name   hitesit
#       Creation time:       Sun Apr 16 22:52:04 2023


#       File generated by GOLD software.
#

@<TRIPOS>MOLECULE
CT1002167954|ligand_prepared|mol2|1|dock3
    29    30     1
SMALL
NO_CHARGES


@<TRIPOS>ATOM
      1 C1         113.1254 245.7409 325.4233 C.3            1 RES1               0.0000
      2 C2         114.6053 245.6858 324.9927 C.ar           1 RES1               0.0000
      3 C3         113.0315 246.8212 326.4968 C.2            1 RES1               0.0000
      4 C4         112.3252 246.0462 324.1619 C.2            1 RES1               0.0000
      5 C5         112.5968 244.4134 326.0148 C.3            1 RES1               0.0000
      6 C6         115.3552 246.8529 324.8824 C.ar           1 RES1               0.0000
      7 C7         115.2342 244.4772 324.7056 C.ar           1 RES1               0.0000
      8 N8         112.4523 248.0066 326.1514 N.am           1 RES1               0.0000
      9 O9         113.4941 246.6498 327.6179 O.2            1 RES1               0.0000
     10 N10        111.6646 247.2450 324.0949 N.am           1 RES1               0.0000
     11 O11        112.2742 245.2666 323.2185 O.2            1 RES1               0.0000
     12 C12        111.2490 244.5439 326.7065 C.3            1 RES1               0.0000
     13 C13        116.6863 246.8132 324.5018 C.ar           1 RES1               0.0000
     14 C14        116.5654 244.4397 324.3248 C.ar           1 RES1               0.0000
     15 C15        111.7170 248.2520 325.0197 C.2            1 RES1               0.0000
     16 C16        117.2924 245.6067 324.2232 C.ar           1 RES1               0.0000
     17 O17        111.1390 249.3238 324.8633 O.2            1 RES1               0.0000
     18 H18        112.5091 243.6769 325.2065 H              1 RES1               0.0000
     19 H19        113.3291 244.0325 326.7374 H              1 RES1               0.0000
     20 H20        114.8946 247.8119 325.0953 H              1 RES1               0.0000
     21 H21        114.6815 243.5466 324.7778 H              1 RES1               0.0000
     22 H22        112.5776 248.7823 326.7939 H              1 RES1               0.0000
     23 H23        111.0796 247.4009 323.2802 H              1 RES1               0.0000
     24 H24        110.9245 243.5842 327.1032 H              1 RES1               0.0000
     25 H25        111.3060 245.2502 327.5322 H              1 RES1               0.0000
     26 H26        110.4908 244.8967 326.0104 H              1 RES1               0.0000
     27 H27        117.2537 247.7345 324.4219 H              1 RES1               0.0000
     28 H28        117.0381 243.4879 324.1059 H              1 RES1               0.0000
     29 H29        118.3352 245.5757 323.9254 H              1 RES1               0.0000
@<TRIPOS>BOND
    1    1    2 1     
    2    1    3 1     
    3    1    4 1     
    4    1    5 1     
    5    2    6 ar    
    6    2    7 ar    
    7    3    8 1     
    8    3    9 2     
    9    4   10 1     
   10    4   11 2     
   11    5   12 1     
   12    5   18 1     
   13    5   19 1     
   14    6   13 ar    
   15    6   20 1     
   16    7   14 ar    
   17    7   21 1     
   18    8   15 1     
   19    8   22 1     
   20   10   15 1     
   21   10   23 1     
   22   12   24 1     
   23   12   25 1     
   24   12   26 1     
   25   13   16 ar    
   26   13   27 1     
   27   14   16 ar    
   28   14   28 1     
   29   15   17 2     
   30   16   29 1     
@<TRIPOS>SUBSTRUCTURE
      1 RES1           1
@<TRIPOS>SET
DONOR_HYDROGENS      STATIC     ATOMS    <user>   **** ""
2 22 23
ATOM$RED        STATIC     ATOMS    COLORGROUP SYSTEM
2 22 23
@<TRIPOS>COMMENT
> <Gold.Version>
2022.3.0

> <Gold.Id.Protein>
unknown|5adf_clean|pdb

> <Gold.Protein.RotatedTorsions>
[ 8428 8423 8424 8425 ] final   60.22 input   46.96 | X-H torsion
[ 8452 8445 8446 8447 ] final   91.24 input  111.34 | X-H torsion
[ 8996 8992 8993 8994 ] final   81.20 input   44.62 | X-H torsion
[ 9030 9016 9017 9018 ] final   84.60 input   32.56 | X-H torsion
[ 9074 9062 9063 9064 ] final   76.81 input   99.28 | X-H torsion
[ 9082 9073 9072 9070 ] final -155.99 input   59.99 | X-H torsion
[ 9108 9100 9101 9102 ] final  107.43 input   89.92 | X-H torsion
[ 9186 9177 9178 9179 ] final   25.94 input  116.56 | X-H torsion
[ 3596 3592 3593 3594 ] final   57.69 input   84.58 | X-H torsion
[ 8978 8972 8973 8974 ] final  140.06 input   29.23 | X-H torsion
[ 9134 9130 9131 9132 ] final   87.67 input  126.15 | X-H torsion
[ 4890 4885 4884 4881 ] final  -76.96 input   60.00 | X-H torsion
[ 8982 8977 8976 8973 ] final   61.22 input   60.00 | X-H torsion
[ 3570 3563 3564 3565 ] final   -3.18 input  100.61 | X-H torsion
[ 3548 3542 3543 3544 ] final   15.88 input   82.26 | X-H torsion
[ 8482 8476 8477 8478 ] final  -28.69 input   53.28 | X-H torsion
[ 8948 8937 8938 8939 ] final    2.09 input   48.32 | X-H torsion
[ 12872 12863 12862 12860 ] final    8.04 input   60.03 | X-H torsion
[ 5550 5545 5544 5541 ] final  -60.45 input   60.00 | X-H torsion
[ 5574 5565 5566 5567 ] final -175.23 input   49.17 | X-H torsion
[ 8328 8319 8318 8316 ] final  -98.02 input   60.00 | X-H torsion
[ 5546 5540 5541 5542 ] final -172.99 input  103.84 | X-H torsion
[ 8508 8500 8501 8502 ] final -132.29 input   63.30 | X-H torsion
[ 8486 8481 8480 8477 ] final  -75.06 input   60.02 | X-H torsion
[ 8536 8528 8529 8530 ] final   37.44 input   88.08 | X-H torsion
[ 12864 12852 12853 12854 ] final   58.73 input  106.44 | X-H torsion
[ 12900 12891 12892 12893 ] final   50.46 input   37.87 | X-H torsion
[ 9214 9206 9207 9208 ] final  -53.52 input   89.32 | X-H torsion
[ 11050 11043 11044 11045 ] final -166.02 input   52.80 | X-H torsion
[ 5606 5598 5599 5600 ] final  -25.91 input  119.27 | X-H torsion
[ 8570 8562 8563 8564 ] final  -32.03 input   68.50 | X-H torsion
[ 13460 8400 8399 8398 ] final   84.95 input   -0.00 | X-H torsion
[ 13464 8940 8939 8938 ] final  101.85 input   -0.00 | X-H torsion
[ 13467 8995 8994 8993 ] final  159.91 input    0.00 | X-H torsion
[ 13470 9019 9018 9017 ] final   47.41 input    0.00 | X-H torsion
[ 13473 9065 9064 9063 ] final   78.64 input   -0.00 | X-H torsion
[ 13478 9103 9102 9101 ] final  -78.17 input   -0.00 | X-H torsion
[ 13491 8975 8974 8973 ] final  174.09 input    0.00 | X-H torsion
[ 13493 8345 8344 8343 ] final    4.46 input    0.00 | X-H torsion
[ 13501 8448 8447 8446 ] final -133.41 input    0.00 | X-H torsion
[ 13503 3502 3501 3500 ] final    2.49 input    0.00 | X-H torsion
[ 13506 8426 8425 8424 ] final   52.19 input    0.00 | X-H torsion
[ 13514 5543 5542 5541 ] final  151.72 input   -0.00 | X-H torsion
[ 13525 9180 9179 9178 ] final   28.19 input    0.00 | X-H torsion
[ 13531 5517 5516 5515 ] final  -75.26 input    0.00 | X-H torsion
[ 13535 8503 8502 8501 ] final  169.21 input   -0.00 | X-H torsion
[ 13538 5568 5567 5566 ] final  -50.26 input   -0.00 | X-H torsion
[ 13540 8479 8478 8477 ] final  168.81 input   -0.00 | X-H torsion
[ 13545 12894 12893 12892 ] final  -98.86 input    0.00 | X-H torsion
[ 13547 12822 12821 12820 ] final -178.44 input   -0.00 | X-H torsion

> <Gold.Protein.ActiveResidues>
 TRP311  MET341  HIS342  TRP414  ALA417  ARG419  CYS420  VAL421  GLY422  LEU460 
 SER462  ASN481  SER482  GLN483  LEU484  ARG486  ALA502  ASN503  TRP566  TYR567 
 GLY568  LEU569  PRO570  ALA571  VAL572  SER573  ASN574  MET575  LEU576  PHE589 
 SER590  GLY591  TRP592  TYR593  MET594  GLY595  GLU597  ILE598  ARG601  ASP602 
 ARG608  ILE653  VAL654  TRP683  PHE709  GLU710  TYR711  GLN712  ASP714  HEM750 
 H4B760 

> <Gold.Protein.RotatedAtoms>
  121.0254  251.6677  329.7035 H   0  0  0  0  0  0  0  0  0  0  0  0  # atno 3548 bound_to 3542
  122.6679  248.6028  328.2899 H   0  0  0  0  0  0  0  0  0  0  0  0  # atno 3570 bound_to 3563
  123.8652  248.3812  327.3106 H   0  0  0  0  0  0  0  0  0  0  0  0  # atno 3596 bound_to 3592
  124.5210  245.9486  318.6569 H   0  0  0  0  0  0  0  0  0  0  0  0  # atno 4890 bound_to 4885
  105.6637  244.7034  318.2552 H   0  0  0  0  0  0  0  0  0  0  0  0  # atno 5546 bound_to 5540
  106.4336  242.8474  320.2395 H   0  0  0  0  0  0  0  0  0  0  0  0  # atno 5550 bound_to 5545
  109.1776  244.0204  319.4809 H   0  0  0  0  0  0  0  0  0  0  0  0  # atno 5574 bound_to 5565
  110.9014  242.1552  316.5998 H   0  0  0  0  0  0  0  0  0  0  0  0  # atno 5606 bound_to 5598
  111.7226  238.4896  320.6812 H   0  0  0  0  0  0  0  0  0  0  0  0  # atno 8328 bound_to 8319
  115.0670  241.7832  318.3180 H   0  0  0  0  0  0  0  0  0  0  0  0  # atno 8428 bound_to 8423
  115.5804  245.7267  318.8463 H   0  0  0  0  0  0  0  0  0  0  0  0  # atno 8452 bound_to 8445
  111.6952  247.5417  318.7399 H   0  0  0  0  0  0  0  0  0  0  0  0  # atno 8482 bound_to 8476
  110.5642  245.1208  316.7443 H   0  0  0  0  0  0  0  0  0  0  0  0  # atno 8486 bound_to 8481
  109.9114  248.5936  317.3070 H   0  0  0  0  0  0  0  0  0  0  0  0  # atno 8508 bound_to 8500
  110.5712  251.2833  318.3474 H   0  0  0  0  0  0  0  0  0  0  0  0  # atno 8536 bound_to 8528
  111.5283  254.5733  319.6294 H   0  0  0  0  0  0  0  0  0  0  0  0  # atno 8570 bound_to 8562
  115.4922  247.8226  315.9977 H   0  0  0  0  0  0  0  0  0  0  0  0  # atno 8948 bound_to 8937
  118.4560  246.6876  315.7890 H   0  0  0  0  0  0  0  0  0  0  0  0  # atno 8978 bound_to 8972
  120.9298  244.0933  315.3873 H   0  0  0  0  0  0  0  0  0  0  0  0  # atno 8982 bound_to 8977
  120.3276  244.4088  319.2486 H   0  0  0  0  0  0  0  0  0  0  0  0  # atno 8996 bound_to 8992
  123.6815  242.8066  320.6871 H   0  0  0  0  0  0  0  0  0  0  0  0  # atno 9030 bound_to 9016
  122.5585  238.7138  322.1608 H   0  0  0  0  0  0  0  0  0  0  0  0  # atno 9074 bound_to 9062
  115.0385  237.2940  321.8242 H   0  0  0  0  0  0  0  0  0  0  0  0  # atno 9082 bound_to 9073
  121.3708  240.5513  326.1409 H   0  0  0  0  0  0  0  0  0  0  0  0  # atno 9108 bound_to 9100
  123.0204  237.3898  329.0696 H   0  0  0  0  0  0  0  0  0  0  0  0  # atno 9134 bound_to 9130
  118.4923  237.0202  329.4047 H   0  0  0  0  0  0  0  0  0  0  0  0  # atno 9186 bound_to 9177
  116.3549  236.8179  328.9166 H   0  0  0  0  0  0  0  0  0  0  0  0  # atno 9214 bound_to 9206
  126.5406  237.4980  324.7248 H   0  0  0  0  0  0  0  0  0  0  0  0  # atno 11050 bound_to 11043
  109.6311  256.8813  324.7494 H   0  0  0  0  0  0  0  0  0  0  0  0  # atno 12864 bound_to 12852
  111.4549  250.6468  328.2703 H   0  0  0  0  0  0  0  0  0  0  0  0  # atno 12872 bound_to 12863
  106.9372  254.0748  322.4741 H   0  0  0  0  0  0  0  0  0  0  0  0  # atno 12900 bound_to 12891
  118.6278  242.7204  318.0372 LP  0  0  0  0  0  0  0  0  0  0  0  0  # atno 13460 bound_to 8400
  118.1136  243.6344  319.4157 LP  0  0  0  0  0  0  0  0  0  0  0  0  # atno 13461 bound_to 8400
  116.6160  242.3633  318.8781 LP  0  0  0  0  0  0  0  0  0  0  0  0  # atno 13462 bound_to 8423
  114.4598  244.5108  318.2784 LP  0  0  0  0  0  0  0  0  0  0  0  0  # atno 13463 bound_to 8445
  116.4593  245.7257  316.8863 LP  0  0  0  0  0  0  0  0  0  0  0  0  # atno 13464 bound_to 8940
  116.6448  246.8199  318.2160 LP  0  0  0  0  0  0  0  0  0  0  0  0  # atno 13465 bound_to 8940
  120.9020  244.5379  317.6009 LP  0  0  0  0  0  0  0  0  0  0  0  0  # atno 13466 bound_to 8992
  122.8778  240.9609  318.3288 LP  0  0  0  0  0  0  0  0  0  0  0  0  # atno 13467 bound_to 8995
  121.9907  242.1621  317.4513 LP  0  0  0  0  0  0  0  0  0  0  0  0  # atno 13468 bound_to 8995
  122.0865  242.6668  319.9914 LP  0  0  0  0  0  0  0  0  0  0  0  0  # atno 13469 bound_to 9016
  121.8668  242.5168  322.5851 LP  0  0  0  0  0  0  0  0  0  0  0  0  # atno 13470 bound_to 9019
  122.6957  241.6661  323.8458 LP  0  0  0  0  0  0  0  0  0  0  0  0  # atno 13471 bound_to 9019
  121.9959  240.3697  322.1768 LP  0  0  0  0  0  0  0  0  0  0  0  0  # atno 13472 bound_to 9062
  124.2575  239.3322  324.4920 LP  0  0  0  0  0  0  0  0  0  0  0  0  # atno 13473 bound_to 9065
  123.7751  237.8543  325.2557 LP  0  0  0  0  0  0  0  0  0  0  0  0  # atno 13474 bound_to 9065
  115.0209  238.9151  321.9668 LP  0  0  0  0  0  0  0  0  0  0  0  0  # atno 13475 bound_to 9073
  114.6556  237.9755  323.2515 LP  0  0  0  0  0  0  0  0  0  0  0  0  # atno 13476 bound_to 9073
  122.1159  239.1545  325.3970 LP  0  0  0  0  0  0  0  0  0  0  0  0  # atno 13477 bound_to 9100
  119.8716  238.6288  328.4146 LP  0  0  0  0  0  0  0  0  0  0  0  0  # atno 13478 bound_to 9103
  120.0379  237.6386  327.0033 LP  0  0  0  0  0  0  0  0  0  0  0  0  # atno 13479 bound_to 9103
  118.6853  238.5194  330.2744 LP  0  0  0  0  0  0  0  0  0  0  0  0  # atno 13480 bound_to 9177
  124.7583  247.3613  328.4105 LP  0  0  0  0  0  0  0  0  0  0  0  0  # atno 13489 bound_to 3592
  119.4177  247.4313  317.0430 LP  0  0  0  0  0  0  0  0  0  0  0  0  # atno 13490 bound_to 8972
  122.6062  245.9576  317.4024 LP  0  0  0  0  0  0  0  0  0  0  0  0  # atno 13491 bound_to 8975
  121.4297  246.5050  316.2551 LP  0  0  0  0  0  0  0  0  0  0  0  0  # atno 13492 bound_to 8975
  121.0198  236.3579  319.3914 LP  0  0  0  0  0  0  0  0  0  0  0  0  # atno 13493 bound_to 8345
  120.3067  237.8690  318.9353 LP  0  0  0  0  0  0  0  0  0  0  0  0  # atno 13494 bound_to 8345
  122.0967  237.6198  327.6026 LP  0  0  0  0  0  0  0  0  0  0  0  0  # atno 13495 bound_to 9130
  125.9742  246.6539  318.8568 LP  0  0  0  0  0  0  0  0  0  0  0  0  # atno 13496 bound_to 4885
  125.8461  245.2700  317.9993 LP  0  0  0  0  0  0  0  0  0  0  0  0  # atno 13497 bound_to 4885
  119.9803  245.1511  314.5957 LP  0  0  0  0  0  0  0  0  0  0  0  0  # atno 13498 bound_to 8977
  119.7893  243.5460  314.3641 LP  0  0  0  0  0  0  0  0  0  0  0  0  # atno 13499 bound_to 8977
  121.9723  248.6729  329.8939 LP  0  0  0  0  0  0  0  0  0  0  0  0  # atno 13500 bound_to 3563
  113.6179  248.8111  317.3507 LP  0  0  0  0  0  0  0  0  0  0  0  0  # atno 13501 bound_to 8448
  114.7069  247.4757  317.1751 LP  0  0  0  0  0  0  0  0  0  0  0  0  # atno 13502 bound_to 8448
  118.6590  249.4035  330.9757 LP  0  0  0  0  0  0  0  0  0  0  0  0  # atno 13503 bound_to 3502
  119.9381  248.8628  329.9406 LP  0  0  0  0  0  0  0  0  0  0  0  0  # atno 13504 bound_to 3502
  119.5227  251.2321  328.9269 LP  0  0  0  0  0  0  0  0  0  0  0  0  # atno 13505 bound_to 3542
  112.9978  243.3058  317.2151 LP  0  0  0  0  0  0  0  0  0  0  0  0  # atno 13506 bound_to 8426
  112.8685  244.9889  316.8274 LP  0  0  0  0  0  0  0  0  0  0  0  0  # atno 13507 bound_to 8426
  112.1407  246.1800  317.7431 LP  0  0  0  0  0  0  0  0  0  0  0  0  # atno 13510 bound_to 8476
  115.7846  249.3545  315.2102 LP  0  0  0  0  0  0  0  0  0  0  0  0  # atno 13511 bound_to 8937
  110.7736  245.2095  319.6490 LP  0  0  0  0  0  0  0  0  0  0  0  0  # atno 13514 bound_to 5543
  109.6750  246.5175  319.3625 LP  0  0  0  0  0  0  0  0  0  0  0  0  # atno 13515 bound_to 5543
  110.7713  251.2837  329.6029 LP  0  0  0  0  0  0  0  0  0  0  0  0  # atno 13516 bound_to 12863
  112.1019  251.9739  328.9550 LP  0  0  0  0  0  0  0  0  0  0  0  0  # atno 13517 bound_to 12863
  106.7566  243.0219  321.8247 LP  0  0  0  0  0  0  0  0  0  0  0  0  # atno 13518 bound_to 5545
  107.9783  242.9133  320.7467 LP  0  0  0  0  0  0  0  0  0  0  0  0  # atno 13519 bound_to 5545
  108.3980  243.2807  318.1006 LP  0  0  0  0  0  0  0  0  0  0  0  0  # atno 13520 bound_to 5565
  112.9597  238.3474  321.7290 LP  0  0  0  0  0  0  0  0  0  0  0  0  # atno 13523 bound_to 8319
  111.6721  237.3494  321.8414 LP  0  0  0  0  0  0  0  0  0  0  0  0  # atno 13524 bound_to 8319
  114.4458  238.3712  328.5378 LP  0  0  0  0  0  0  0  0  0  0  0  0  # atno 13525 bound_to 9180
  114.3136  236.6597  328.7687 LP  0  0  0  0  0  0  0  0  0  0  0  0  # atno 13526 bound_to 9180
  107.0460  243.8420  317.6273 LP  0  0  0  0  0  0  0  0  0  0  0  0  # atno 13529 bound_to 5540
  110.4951  248.8096  318.9349 LP  0  0  0  0  0  0  0  0  0  0  0  0  # atno 13530 bound_to 8500
  108.0866  245.9532  316.2618 LP  0  0  0  0  0  0  0  0  0  0  0  0  # atno 13531 bound_to 5517
  106.9003  246.9251  317.0668 LP  0  0  0  0  0  0  0  0  0  0  0  0  # atno 13532 bound_to 5517
  109.5077  245.2171  315.5100 LP  0  0  0  0  0  0  0  0  0  0  0  0  # atno 13533 bound_to 8481
  109.3120  246.1569  316.8310 LP  0  0  0  0  0  0  0  0  0  0  0  0  # atno 13534 bound_to 8481
  108.3407  252.5602  320.4054 LP  0  0  0  0  0  0  0  0  0  0  0  0  # atno 13535 bound_to 8503
  107.1353  251.5756  319.6455 LP  0  0  0  0  0  0  0  0  0  0  0  0  # atno 13536 bound_to 8503
  109.6824  250.8402  319.7812 LP  0  0  0  0  0  0  0  0  0  0  0  0  # atno 13537 bound_to 8528
  108.8883  241.3271  317.0144 LP  0  0  0  0  0  0  0  0  0  0  0  0  # atno 13538 bound_to 5568
  108.8123  242.2463  315.5483 LP  0  0  0  0  0  0  0  0  0  0  0  0  # atno 13539 bound_to 5568
  108.6375  249.7899  316.2288 LP  0  0  0  0  0  0  0  0  0  0  0  0  # atno 13540 bound_to 8479
  109.8322  249.2290  315.1072 LP  0  0  0  0  0  0  0  0  0  0  0  0  # atno 13541 bound_to 8479
  104.5108  252.7716  321.7163 LP  0  0  0  0  0  0  0  0  0  0  0  0  # atno 13545 bound_to 12894
  104.6576  253.2427  323.3765 LP  0  0  0  0  0  0  0  0  0  0  0  0  # atno 13546 bound_to 12894
  109.8065  254.8520  322.1257 LP  0  0  0  0  0  0  0  0  0  0  0  0  # atno 13547 bound_to 12822
  111.1949  255.7057  321.5397 LP  0  0  0  0  0  0  0  0  0  0  0  0  # atno 13548 bound_to 12822
  110.6396  255.6548  324.0215 LP  0  0  0  0  0  0  0  0  0  0  0  0  # atno 13549 bound_to 12852
  107.1960  255.6008  323.2864 LP  0  0  0  0  0  0  0  0  0  0  0  0  # atno 13550 bound_to 12891

> <Gold.Score>
     Fitness  S(hb_ext) S(vdw_ext)  S(hb_int)    S(int)      intcor
     35.11       6.00      21.38       0.00      -0.29      -0.76

> <Gold.Goldscore.Fitness>
35.1123

> <Gold.Goldscore.Internal.Vdw>
-0.4428

> <Gold.Goldscore.Internal.Torsion>
-0.6091

> <Gold.Goldscore.External.Vdw>
21.3813

> <Gold.Goldscore.Internal.HBond>
0.0000

> <Gold.Goldscore.External.HBond>
6.0000

> <Gold.Goldscore.Internal.Correction>
-0.7650

> <Gold.Goldscore.Hbonds>
donor molecule, donor type, donor heavy atom, donor atom, acceptor molecule, acceptor atom, score
      L1  H     8    22       P1 13310  1.00

> <Gold.Goldscore.Internal.Vdw.Weighted>
-0.4428

> <Gold.Goldscore.Internal.Torsion.Weighted>
-0.6091

> <Gold.Goldscore.External.Vdw.Weighted>
29.3992

> <Gold.Goldscore.Internal.HBond.Weighted>
0.0000

> <Gold.Goldscore.External.HBond.Weighted>
6.0000

> <Gold.Goldscore.Internal.Correction.Weighted>
-0.7650

> <Gold.Rescore>
     Score     S(PLP)   S(hbond)     S(cho)   S(metal)  DE(clash)   DE(tors)     intcor
     35.22     -32.82       0.98       0.00       0.00       0.00       0.27       ----

> <Gold.PLP.Fitness>
35.2188

> <Gold.PLP.PLP>
-32.8218

> <Gold.PLP.part.hbond>
-1.0000

> <Gold.PLP.part.metal>
0.0000

> <Gold.PLP.part.buried>
-1.0467

> <Gold.PLP.part.nonpolar>
-32.1952

> <Gold.PLP.part.repulsive>
2.3503

> <Gold.PLP.ligand.clash>
0.0000

> <Gold.PLP.ligand.torsion>
0.2655

> <Gold.PLP.Chemscore.Hbond>
0.9760

> <Gold.PLP.Chemscore.CHOScore>
0.0000

> <Gold.PLP.Chemscore.Metal>
0.0000

> <Gold.Chemscore.Hbonds>
donor molecule, donor type, donor heavy atom, donor atom, acceptor molecule, acceptor atom, score
      L1  H     8    22       P1 13310  0.63

> <Gold.PLP.Chemscore.Internal.Correction>
   9.000000E+99

#       Name:                CT1002167954
#       Creating user name   hitesit
#       Creation time:       Sun Apr 16 22:52:05 2023


#       File generated by GOLD software.
#

@<TRIPOS>MOLECULE
CT1002167954|ligand_prepared|mol2|1|dock4
    29    30     1
SMALL
NO_CHARGES


@<TRIPOS>ATOM
      1 C1         113.2036 241.8218 325.8622 C.3            1 RES1               0.0000
      2 C2         114.1463 242.5686 324.8966 C.ar           1 RES1               0.0000
      3 C3         111.7884 242.0445 325.3370 C.2            1 RES1               0.0000
      4 C4         113.6491 240.3637 325.8508 C.2            1 RES1               0.0000
      5 C5         113.2720 242.3309 327.3208 C.3            1 RES1               0.0000
      6 C6         114.6871 243.8022 325.2468 C.ar           1 RES1               0.0000
      7 C7         114.4860 242.0364 323.6556 C.ar           1 RES1               0.0000
      8 N8         111.1698 240.9955 324.7231 N.am           1 RES1               0.0000
      9 O9         111.2385 243.1355 325.4250 O.2            1 RES1               0.0000
     10 N10        112.7849 239.4322 325.3376 N.am           1 RES1               0.0000
     11 O11        114.7473 240.0152 326.2663 O.2            1 RES1               0.0000
     12 C12        112.5611 241.4303 328.3186 C.3            1 RES1               0.0000
     13 C13        115.5389 244.4779 324.3888 C.ar           1 RES1               0.0000
     14 C14        115.3378 242.7139 322.7990 C.ar           1 RES1               0.0000
     15 C15        111.5779 239.6861 324.7451 C.2            1 RES1               0.0000
     16 C16        115.8652 243.9341 323.1647 C.ar           1 RES1               0.0000
     17 O17        110.8817 238.8002 324.2576 O.2            1 RES1               0.0000
     18 H18        114.3252 242.4210 327.6143 H              1 RES1               0.0000
     19 H19        112.8244 243.3314 327.3670 H              1 RES1               0.0000
     20 H20        114.4398 244.2469 326.2049 H              1 RES1               0.0000
     21 H21        114.0822 241.0783 323.3465 H              1 RES1               0.0000
     22 H22        110.3259 241.2039 324.1991 H              1 RES1               0.0000
     23 H23        113.0674 238.4595 325.4035 H              1 RES1               0.0000
     24 H24        112.6396 241.8333 329.3261 H              1 RES1               0.0000
     25 H25        111.5055 241.3385 328.0715 H              1 RES1               0.0000
     26 H26        112.9974 240.4335 328.3174 H              1 RES1               0.0000
     27 H27        115.9502 245.4385 324.6807 H              1 RES1               0.0000
     28 H28        115.5914 242.2824 321.8363 H              1 RES1               0.0000
     29 H29        116.5328 244.4634 322.4929 H              1 RES1               0.0000
@<TRIPOS>BOND
    1    1    2 1     
    2    1    3 1     
    3    1    4 1     
    4    1    5 1     
    5    2    6 ar    
    6    2    7 ar    
    7    3    8 1     
    8    3    9 2     
    9    4   10 1     
   10    4   11 2     
   11    5   12 1     
   12    5   18 1     
   13    5   19 1     
   14    6   13 ar    
   15    6   20 1     
   16    7   14 ar    
   17    7   21 1     
   18    8   15 1     
   19    8   22 1     
   20   10   15 1     
   21   10   23 1     
   22   12   24 1     
   23   12   25 1     
   24   12   26 1     
   25   13   16 ar    
   26   13   27 1     
   27   14   16 ar    
   28   14   28 1     
   29   15   17 2     
   30   16   29 1     
@<TRIPOS>SUBSTRUCTURE
      1 RES1           1
@<TRIPOS>SET
DONOR_HYDROGENS      STATIC     ATOMS    <user>   **** ""
2 22 23
ATOM$RED        STATIC     ATOMS    COLORGROUP SYSTEM
2 22 23
@<TRIPOS>COMMENT
> <Gold.Version>
2022.3.0

> <Gold.Id.Protein>
unknown|5adf_clean|pdb

> <Gold.Protein.RotatedTorsions>
[ 8428 8423 8424 8425 ] final  -19.75 input   46.96 | X-H torsion
[ 8452 8445 8446 8447 ] final  170.30 input  111.34 | X-H torsion
[ 8996 8992 8993 8994 ] final  101.95 input   44.62 | X-H torsion
[ 9030 9016 9017 9018 ] final -114.31 input   32.56 | X-H torsion
[ 9074 9062 9063 9064 ] final -171.36 input   99.28 | X-H torsion
[ 9082 9073 9072 9070 ] final    5.51 input   59.99 | X-H torsion
[ 9108 9100 9101 9102 ] final -136.05 input   89.92 | X-H torsion
[ 9186 9177 9178 9179 ] final  -51.61 input  116.56 | X-H torsion
[ 3596 3592 3593 3594 ] final  -30.18 input   84.58 | X-H torsion
[ 8978 8972 8973 8974 ] final   16.52 input   29.23 | X-H torsion
[ 9134 9130 9131 9132 ] final    7.18 input  126.15 | X-H torsion
[ 4890 4885 4884 4881 ] final -123.71 input   60.00 | X-H torsion
[ 8982 8977 8976 8973 ] final  171.51 input   60.00 | X-H torsion
[ 3570 3563 3564 3565 ] final  -18.64 input  100.61 | X-H torsion
[ 3548 3542 3543 3544 ] final -104.46 input   82.26 | X-H torsion
[ 8482 8476 8477 8478 ] final  130.73 input   53.28 | X-H torsion
[ 8948 8937 8938 8939 ] final  -45.83 input   48.32 | X-H torsion
[ 12872 12863 12862 12860 ] final  127.75 input   60.03 | X-H torsion
[ 5550 5545 5544 5541 ] final   91.63 input   60.00 | X-H torsion
[ 5574 5565 5566 5567 ] final -171.51 input   49.17 | X-H torsion
[ 8328 8319 8318 8316 ] final  156.17 input   60.00 | X-H torsion
[ 5546 5540 5541 5542 ] final  103.89 input  103.84 | X-H torsion
[ 8508 8500 8501 8502 ] final   28.11 input   63.30 | X-H torsion
[ 8486 8481 8480 8477 ] final   47.24 input   60.02 | X-H torsion
[ 8536 8528 8529 8530 ] final -115.94 input   88.08 | X-H torsion
[ 12864 12852 12853 12854 ] final  127.15 input  106.44 | X-H torsion
[ 12900 12891 12892 12893 ] final  -21.25 input   37.87 | X-H torsion
[ 9214 9206 9207 9208 ] final -178.28 input   89.32 | X-H torsion
[ 11050 11043 11044 11045 ] final  -47.21 input   52.80 | X-H torsion
[ 5606 5598 5599 5600 ] final  -70.06 input  119.27 | X-H torsion
[ 8570 8562 8563 8564 ] final   25.24 input   68.50 | X-H torsion
[ 13460 8400 8399 8398 ] final -155.90 input   -0.00 | X-H torsion
[ 13464 8940 8939 8938 ] final  -84.26 input   -0.00 | X-H torsion
[ 13467 8995 8994 8993 ] final  170.18 input    0.00 | X-H torsion
[ 13470 9019 9018 9017 ] final -177.90 input    0.00 | X-H torsion
[ 13473 9065 9064 9063 ] final  -23.76 input   -0.00 | X-H torsion
[ 13478 9103 9102 9101 ] final -105.85 input   -0.00 | X-H torsion
[ 13491 8975 8974 8973 ] final  171.12 input    0.00 | X-H torsion
[ 13493 8345 8344 8343 ] final -170.55 input    0.00 | X-H torsion
[ 13501 8448 8447 8446 ] final   69.82 input    0.00 | X-H torsion
[ 13503 3502 3501 3500 ] final   26.21 input    0.00 | X-H torsion
[ 13506 8426 8425 8424 ] final  -40.01 input    0.00 | X-H torsion
[ 13514 5543 5542 5541 ] final   45.72 input   -0.00 | X-H torsion
[ 13525 9180 9179 9178 ] final  -47.17 input    0.00 | X-H torsion
[ 13531 5517 5516 5515 ] final  -48.41 input    0.00 | X-H torsion
[ 13535 8503 8502 8501 ] final  -62.55 input   -0.00 | X-H torsion
[ 13538 5568 5567 5566 ] final   19.01 input   -0.00 | X-H torsion
[ 13540 8479 8478 8477 ] final  135.65 input   -0.00 | X-H torsion
[ 13545 12894 12893 12892 ] final    7.62 input    0.00 | X-H torsion
[ 13547 12822 12821 12820 ] final  132.75 input   -0.00 | X-H torsion

> <Gold.Protein.ActiveResidues>
 TRP311  MET341  HIS342  TRP414  ALA417  ARG419  CYS420  VAL421  GLY422  LEU460 
 SER462  ASN481  SER482  GLN483  LEU484  ARG486  ALA502  ASN503  TRP566  TYR567 
 GLY568  LEU569  PRO570  ALA571  VAL572  SER573  ASN574  MET575  LEU576  PHE589 
 SER590  GLY591  TRP592  TYR593  MET594  GLY595  GLU597  ILE598  ARG601  ASP602 
 ARG608  ILE653  VAL654  TRP683  PHE709  GLU710  TYR711  GLN712  ASP714  HEM750 
 H4B760 

> <Gold.Protein.RotatedAtoms>
  119.7416  250.8349  329.6681 H   0  0  0  0  0  0  0  0  0  0  0  0  # atno 3548 bound_to 3542
  122.7274  248.8286  328.3410 H   0  0  0  0  0  0  0  0  0  0  0  0  # atno 3570 bound_to 3563
  124.8247  248.5622  328.0445 H   0  0  0  0  0  0  0  0  0  0  0  0  # atno 3596 bound_to 3592
  124.8654  246.5299  318.9667 H   0  0  0  0  0  0  0  0  0  0  0  0  # atno 4890 bound_to 4885
  106.0984  243.6485  318.5052 H   0  0  0  0  0  0  0  0  0  0  0  0  # atno 5546 bound_to 5540
  107.9312  242.9711  321.2604 H   0  0  0  0  0  0  0  0  0  0  0  0  # atno 5550 bound_to 5545
  109.1788  244.0699  319.4514 H   0  0  0  0  0  0  0  0  0  0  0  0  # atno 5574 bound_to 5565
  110.5483  242.6855  316.4139 H   0  0  0  0  0  0  0  0  0  0  0  0  # atno 5606 bound_to 5598
  112.9358  238.4965  321.5525 H   0  0  0  0  0  0  0  0  0  0  0  0  # atno 8328 bound_to 8319
  115.3189  242.4591  319.1926 H   0  0  0  0  0  0  0  0  0  0  0  0  # atno 8428 bound_to 8423
  115.1583  244.8317  319.3865 H   0  0  0  0  0  0  0  0  0  0  0  0  # atno 8452 bound_to 8445
  111.8543  246.0834  317.8212 H   0  0  0  0  0  0  0  0  0  0  0  0  # atno 8482 bound_to 8476
  109.2926  246.1563  316.7979 H   0  0  0  0  0  0  0  0  0  0  0  0  # atno 8486 bound_to 8481
  110.6425  249.0326  318.8051 H   0  0  0  0  0  0  0  0  0  0  0  0  # atno 8508 bound_to 8500
  109.3993  251.0208  319.5604 H   0  0  0  0  0  0  0  0  0  0  0  0  # atno 8536 bound_to 8528
  111.2690  255.0575  320.2762 H   0  0  0  0  0  0  0  0  0  0  0  0  # atno 8570 bound_to 8562
  115.6310  247.7677  315.2961 H   0  0  0  0  0  0  0  0  0  0  0  0  # atno 8948 bound_to 8937
  119.8018  247.2380  316.3373 H   0  0  0  0  0  0  0  0  0  0  0  0  # atno 8978 bound_to 8972
  119.8896  243.4589  314.4519 H   0  0  0  0  0  0  0  0  0  0  0  0  # atno 8982 bound_to 8977
  120.3889  244.7223  319.2334 H   0  0  0  0  0  0  0  0  0  0  0  0  # atno 8996 bound_to 8992
  122.2324  242.6157  319.7494 H   0  0  0  0  0  0  0  0  0  0  0  0  # atno 9030 bound_to 9016
  121.4695  239.6324  321.8020 H   0  0  0  0  0  0  0  0  0  0  0  0  # atno 9074 bound_to 9062
  114.7162  238.6150  323.0763 H   0  0  0  0  0  0  0  0  0  0  0  0  # atno 9082 bound_to 9073
  122.5717  239.9526  325.4497 H   0  0  0  0  0  0  0  0  0  0  0  0  # atno 9108 bound_to 9100
  122.0029  237.8899  328.9066 H   0  0  0  0  0  0  0  0  0  0  0  0  # atno 9134 bound_to 9130
  118.0796  237.3069  330.3814 H   0  0  0  0  0  0  0  0  0  0  0  0  # atno 9186 bound_to 9177
  116.8788  236.9818  327.4351 H   0  0  0  0  0  0  0  0  0  0  0  0  # atno 9214 bound_to 9206
  125.7403  236.6156  325.6600 H   0  0  0  0  0  0  0  0  0  0  0  0  # atno 11050 bound_to 11043
  110.0890  256.1618  325.2571 H   0  0  0  0  0  0  0  0  0  0  0  0  # atno 12864 bound_to 12852
  112.0979  251.9690  328.9496 H   0  0  0  0  0  0  0  0  0  0  0  0  # atno 12872 bound_to 12863
  106.5184  254.3599  323.3782 H   0  0  0  0  0  0  0  0  0  0  0  0  # atno 12900 bound_to 12891
  117.8647  243.8702  318.6084 LP  0  0  0  0  0  0  0  0  0  0  0  0  # atno 13460 bound_to 8400
  118.8767  242.4845  318.8445 LP  0  0  0  0  0  0  0  0  0  0  0  0  # atno 13461 bound_to 8400
  116.3692  241.7012  318.0212 LP  0  0  0  0  0  0  0  0  0  0  0  0  # atno 13462 bound_to 8423
  114.8710  245.3825  317.7523 LP  0  0  0  0  0  0  0  0  0  0  0  0  # atno 13463 bound_to 8445
  116.7066  246.7603  318.2500 LP  0  0  0  0  0  0  0  0  0  0  0  0  # atno 13464 bound_to 8940
  116.3975  245.7854  316.8522 LP  0  0  0  0  0  0  0  0  0  0  0  0  # atno 13465 bound_to 8940
  120.8425  244.2338  317.6157 LP  0  0  0  0  0  0  0  0  0  0  0  0  # atno 13466 bound_to 8992
  122.7390  240.9174  318.3823 LP  0  0  0  0  0  0  0  0  0  0  0  0  # atno 13467 bound_to 8995
  122.1295  242.2055  317.3978 LP  0  0  0  0  0  0  0  0  0  0  0  0  # atno 13468 bound_to 8995
  123.5113  242.8546  320.9134 LP  0  0  0  0  0  0  0  0  0  0  0  0  # atno 13469 bound_to 9016
  122.0333  241.5934  323.8791 LP  0  0  0  0  0  0  0  0  0  0  0  0  # atno 13470 bound_to 9019
  122.5292  242.5895  322.5518 LP  0  0  0  0  0  0  0  0  0  0  0  0  # atno 13471 bound_to 9019
  123.0542  239.4770  322.5255 LP  0  0  0  0  0  0  0  0  0  0  0  0  # atno 13472 bound_to 9062
  123.7508  238.1151  324.2024 LP  0  0  0  0  0  0  0  0  0  0  0  0  # atno 13473 bound_to 9065
  124.2818  239.0715  325.5453 LP  0  0  0  0  0  0  0  0  0  0  0  0  # atno 13474 bound_to 9065
  114.8637  237.1230  322.4434 LP  0  0  0  0  0  0  0  0  0  0  0  0  # atno 13475 bound_to 9073
  115.1374  238.4378  321.5144 LP  0  0  0  0  0  0  0  0  0  0  0  0  # atno 13476 bound_to 9073
  120.9499  239.7358  326.0681 LP  0  0  0  0  0  0  0  0  0  0  0  0  # atno 13477 bound_to 9100
  119.8506  238.2420  328.5618 LP  0  0  0  0  0  0  0  0  0  0  0  0  # atno 13478 bound_to 9103
  120.0589  238.0254  326.8560 LP  0  0  0  0  0  0  0  0  0  0  0  0  # atno 13479 bound_to 9103
  119.0934  238.2359  329.3089 LP  0  0  0  0  0  0  0  0  0  0  0  0  # atno 13480 bound_to 9177
  123.8148  247.1833  327.6888 LP  0  0  0  0  0  0  0  0  0  0  0  0  # atno 13489 bound_to 3592
  118.0982  246.8917  316.5053 LP  0  0  0  0  0  0  0  0  0  0  0  0  # atno 13490 bound_to 8972
  122.5944  245.9918  317.4290 LP  0  0  0  0  0  0  0  0  0  0  0  0  # atno 13491 bound_to 8975
  121.4415  246.4708  316.2285 LP  0  0  0  0  0  0  0  0  0  0  0  0  # atno 13492 bound_to 8975
  120.2628  237.8629  318.9962 LP  0  0  0  0  0  0  0  0  0  0  0  0  # atno 13493 bound_to 8345
  121.0637  236.3640  319.3305 LP  0  0  0  0  0  0  0  0  0  0  0  0  # atno 13494 bound_to 8345
  123.0864  237.1334  327.7612 LP  0  0  0  0  0  0  0  0  0  0  0  0  # atno 13495 bound_to 9130
  126.3674  246.1498  318.4682 LP  0  0  0  0  0  0  0  0  0  0  0  0  # atno 13496 bound_to 4885
  125.1064  245.1891  318.0761 LP  0  0  0  0  0  0  0  0  0  0  0  0  # atno 13497 bound_to 4885
  120.9452  244.2509  315.4035 LP  0  0  0  0  0  0  0  0  0  0  0  0  # atno 13498 bound_to 8977
  119.8721  245.0852  314.4985 LP  0  0  0  0  0  0  0  0  0  0  0  0  # atno 13499 bound_to 8977
  121.9146  248.4542  329.8444 LP  0  0  0  0  0  0  0  0  0  0  0  0  # atno 13500 bound_to 3563
  114.5152  247.4487  316.8849 LP  0  0  0  0  0  0  0  0  0  0  0  0  # atno 13501 bound_to 8448
  113.8095  248.8382  317.6408 LP  0  0  0  0  0  0  0  0  0  0  0  0  # atno 13502 bound_to 8448
  118.4856  249.3427  330.6707 LP  0  0  0  0  0  0  0  0  0  0  0  0  # atno 13503 bound_to 3502
  120.1115  248.9236  330.2456 LP  0  0  0  0  0  0  0  0  0  0  0  0  # atno 13504 bound_to 3502
  120.7807  252.0482  328.9616 LP  0  0  0  0  0  0  0  0  0  0  0  0  # atno 13505 bound_to 3542
  113.3436  244.0393  316.2663 LP  0  0  0  0  0  0  0  0  0  0  0  0  # atno 13506 bound_to 8426
  112.5228  244.2554  317.7761 LP  0  0  0  0  0  0  0  0  0  0  0  0  # atno 13507 bound_to 8426
  111.9841  247.6154  318.6474 LP  0  0  0  0  0  0  0  0  0  0  0  0  # atno 13510 bound_to 8476
  115.6488  249.4082  315.8968 LP  0  0  0  0  0  0  0  0  0  0  0  0  # atno 13511 bound_to 8937
  109.8397  246.0228  320.2652 LP  0  0  0  0  0  0  0  0  0  0  0  0  # atno 13514 bound_to 5543
  110.6089  245.7042  318.7463 LP  0  0  0  0  0  0  0  0  0  0  0  0  # atno 13515 bound_to 5543
  111.4526  250.6389  328.2692 LP  0  0  0  0  0  0  0  0  0  0  0  0  # atno 13516 bound_to 12863
  110.7732  251.2877  329.6050 LP  0  0  0  0  0  0  0  0  0  0  0  0  # atno 13517 bound_to 12863
  106.8991  242.8242  320.0110 LP  0  0  0  0  0  0  0  0  0  0  0  0  # atno 13518 bound_to 5545
  106.3269  242.9865  321.5319 LP  0  0  0  0  0  0  0  0  0  0  0  0  # atno 13519 bound_to 5545
  108.3969  243.2327  318.1293 LP  0  0  0  0  0  0  0  0  0  0  0  0  # atno 13520 bound_to 5565
  111.8612  237.3505  321.9772 LP  0  0  0  0  0  0  0  0  0  0  0  0  # atno 13523 bound_to 8319
  111.5488  238.3393  320.7158 LP  0  0  0  0  0  0  0  0  0  0  0  0  # atno 13524 bound_to 8319
  114.4560  237.8389  329.4530 LP  0  0  0  0  0  0  0  0  0  0  0  0  # atno 13525 bound_to 9180
  114.3035  237.1920  327.8535 LP  0  0  0  0  0  0  0  0  0  0  0  0  # atno 13526 bound_to 9180
  106.6187  244.8788  317.3816 LP  0  0  0  0  0  0  0  0  0  0  0  0  # atno 13529 bound_to 5540
  109.7695  248.3739  317.4481 LP  0  0  0  0  0  0  0  0  0  0  0  0  # atno 13530 bound_to 8500
  107.8202  246.0347  315.9717 LP  0  0  0  0  0  0  0  0  0  0  0  0  # atno 13531 bound_to 5517
  107.1667  246.8437  317.3568 LP  0  0  0  0  0  0  0  0  0  0  0  0  # atno 13532 bound_to 5517
  110.5625  245.1385  316.7784 LP  0  0  0  0  0  0  0  0  0  0  0  0  # atno 13533 bound_to 8481
  109.5370  245.1933  315.5088 LP  0  0  0  0  0  0  0  0  0  0  0  0  # atno 13534 bound_to 8481
  107.3576  252.1843  319.2562 LP  0  0  0  0  0  0  0  0  0  0  0  0  # atno 13535 bound_to 8503
  108.1183  251.9515  320.7948 LP  0  0  0  0  0  0  0  0  0  0  0  0  # atno 13536 bound_to 8503
  110.8410  251.0998  318.5819 LP  0  0  0  0  0  0  0  0  0  0  0  0  # atno 13537 bound_to 8528
  108.4623  242.2105  316.9293 LP  0  0  0  0  0  0  0  0  0  0  0  0  # atno 13538 bound_to 5568
  109.2383  241.3629  315.6334 LP  0  0  0  0  0  0  0  0  0  0  0  0  # atno 13539 bound_to 5568
  108.4842  249.3483  316.0686 LP  0  0  0  0  0  0  0  0  0  0  0  0  # atno 13540 bound_to 8479
  109.9855  249.6706  315.2674 LP  0  0  0  0  0  0  0  0  0  0  0  0  # atno 13541 bound_to 8479
  105.4242  253.1675  322.6829 LP  0  0  0  0  0  0  0  0  0  0  0  0  # atno 13545 bound_to 12894
  103.7441  252.8468  322.4099 LP  0  0  0  0  0  0  0  0  0  0  0  0  # atno 13546 bound_to 12894
  110.4318  254.5385  322.2766 LP  0  0  0  0  0  0  0  0  0  0  0  0  # atno 13547 bound_to 12822
  110.5696  256.0192  321.3888 LP  0  0  0  0  0  0  0  0  0  0  0  0  # atno 13548 bound_to 12822
  110.1914  256.3592  323.5245 LP  0  0  0  0  0  0  0  0  0  0  0  0  # atno 13549 bound_to 12852
  107.6046  255.3226  322.4042 LP  0  0  0  0  0  0  0  0  0  0  0  0  # atno 13550 bound_to 12891

> <Gold.Score>
     Fitness  S(hb_ext) S(vdw_ext)  S(hb_int)    S(int)      intcor
     34.53       4.45      22.31       0.00      -0.59      -0.76

> <Gold.Goldscore.Fitness>
34.5342

> <Gold.Goldscore.Internal.Vdw>
-0.7903

> <Gold.Goldscore.Internal.Torsion>
-0.5667

> <Gold.Goldscore.External.Vdw>
22.3107

> <Gold.Goldscore.Internal.HBond>
0.0000

> <Gold.Goldscore.External.HBond>
4.4490

> <Gold.Goldscore.Internal.Correction>
-0.7650

> <Gold.Goldscore.Hbonds>
donor molecule, donor type, donor heavy atom, donor atom, acceptor molecule, acceptor atom, score
      P1  H  9513  9527       L1    17  0.07
      L1  H    10    23       P1  9345  0.67

> <Gold.Goldscore.Internal.Vdw.Weighted>
-0.7903

> <Gold.Goldscore.Internal.Torsion.Weighted>
-0.5667

> <Gold.Goldscore.External.Vdw.Weighted>
30.6772

> <Gold.Goldscore.Internal.HBond.Weighted>
0.0000

> <Gold.Goldscore.External.HBond.Weighted>
4.4490

> <Gold.Goldscore.Internal.Correction.Weighted>
-0.7650

> <Gold.Rescore>
     Score     S(PLP)   S(hbond)     S(cho)   S(metal)  DE(clash)   DE(tors)     intcor
     20.52     -20.00       1.00       0.00       0.00       0.00       1.24       ----

> <Gold.PLP.Fitness>
20.5211

> <Gold.PLP.PLP>
-19.9989

> <Gold.PLP.part.hbond>
-4.0242

> <Gold.PLP.part.metal>
0.0000

> <Gold.PLP.part.buried>
8.4351

> <Gold.PLP.part.nonpolar>
-26.7355

> <Gold.PLP.part.repulsive>
0.9960

> <Gold.PLP.ligand.clash>
0.0000

> <Gold.PLP.ligand.torsion>
1.2380

> <Gold.PLP.Chemscore.Hbond>
0.9994

> <Gold.PLP.Chemscore.CHOScore>
0.0000

> <Gold.PLP.Chemscore.Metal>
0.0000

> <Gold.Chemscore.Hbonds>
donor molecule, donor type, donor heavy atom, donor atom, acceptor molecule, acceptor atom, score
      L1  H    10    23       P1  9345  0.80
      P1  H  5687  5700       L1    17  0.21
      P1  H  9513  9527       L1    17  0.58

> <Gold.PLP.Chemscore.Internal.Correction>
   9.000000E+99

#       Name:                CT1002167954
#       Creating user name   hitesit
#       Creation time:       Sun Apr 16 22:52:03 2023


#       File generated by GOLD software.
#

@<TRIPOS>MOLECULE
CT1002167954|ligand_prepared|mol2|1|dock2
    29    30     1
SMALL
NO_CHARGES


@<TRIPOS>ATOM
      1 C1         111.8835 242.1893 325.7608 C.3            1 RES1               0.0000
      2 C2         111.2787 243.2371 324.8042 C.ar           1 RES1               0.0000
      3 C3         110.7175 241.3407 326.2593 C.2            1 RES1               0.0000
      4 C4         112.9143 241.4140 324.9477 C.2            1 RES1               0.0000
      5 C5         112.6033 242.8024 326.9846 C.3            1 RES1               0.0000
      6 C6         110.2775 242.8815 323.9053 C.ar           1 RES1               0.0000
      7 C7         111.7090 244.5613 324.8107 C.ar           1 RES1               0.0000
      8 N8         110.5970 240.0772 325.7604 N.am           1 RES1               0.0000
      9 O9         109.8937 241.7871 327.0481 O.2            1 RES1               0.0000
     10 N10        112.6750 240.0866 324.7060 N.am           1 RES1               0.0000
     11 O11        113.9234 241.9447 324.5001 O.2            1 RES1               0.0000
     12 C12        113.0518 241.7739 328.0108 C.3            1 RES1               0.0000
     13 C13        109.7244 243.8165 323.0461 C.ar           1 RES1               0.0000
     14 C14        111.1546 245.4946 323.9504 C.ar           1 RES1               0.0000
     15 C15        111.5481 239.3905 325.0493 C.2            1 RES1               0.0000
     16 C16        110.1622 245.1236 323.0683 C.ar           1 RES1               0.0000
     17 O17        111.3821 238.2118 324.7489 O.2            1 RES1               0.0000
     18 H18        113.4817 243.3591 326.6353 H              1 RES1               0.0000
     19 H19        111.9265 243.5152 327.4717 H              1 RES1               0.0000
     20 H20        109.9220 241.8571 323.8717 H              1 RES1               0.0000
     21 H21        112.4894 244.8756 325.4954 H              1 RES1               0.0000
     22 H22        109.7184 239.5986 325.9318 H              1 RES1               0.0000
     23 H23        113.4045 239.5694 324.2257 H              1 RES1               0.0000
     24 H24        113.5508 242.2570 328.8483 H              1 RES1               0.0000
     25 H25        112.2001 241.2187 328.3982 H              1 RES1               0.0000
     26 H26        113.7460 241.0634 327.5668 H              1 RES1               0.0000
     27 H27        108.9445 243.5191 322.3528 H              1 RES1               0.0000
     28 H28        111.5027 246.5221 323.9709 H              1 RES1               0.0000
     29 H29        109.7284 245.8559 322.3954 H              1 RES1               0.0000
@<TRIPOS>BOND
    1    1    2 1     
    2    1    3 1     
    3    1    4 1     
    4    1    5 1     
    5    2    6 ar    
    6    2    7 ar    
    7    3    8 1     
    8    3    9 2     
    9    4   10 1     
   10    4   11 2     
   11    5   12 1     
   12    5   18 1     
   13    5   19 1     
   14    6   13 ar    
   15    6   20 1     
   16    7   14 ar    
   17    7   21 1     
   18    8   15 1     
   19    8   22 1     
   20   10   15 1     
   21   10   23 1     
   22   12   24 1     
   23   12   25 1     
   24   12   26 1     
   25   13   16 ar    
   26   13   27 1     
   27   14   16 ar    
   28   14   28 1     
   29   15   17 2     
   30   16   29 1     
@<TRIPOS>SUBSTRUCTURE
      1 RES1           1
@<TRIPOS>SET
DONOR_HYDROGENS      STATIC     ATOMS    <user>   **** ""
2 22 23
ATOM$RED        STATIC     ATOMS    COLORGROUP SYSTEM
2 22 23
@<TRIPOS>COMMENT
> <Gold.Version>
2022.3.0

> <Gold.Id.Protein>
unknown|5adf_clean|pdb

> <Gold.Protein.RotatedTorsions>
[ 8428 8423 8424 8425 ] final -125.42 input   46.96 | X-H torsion
[ 8452 8445 8446 8447 ] final  -14.63 input  111.34 | X-H torsion
[ 8996 8992 8993 8994 ] final  148.79 input   44.62 | X-H torsion
[ 9030 9016 9017 9018 ] final -175.20 input   32.56 | X-H torsion
[ 9074 9062 9063 9064 ] final  161.93 input   99.28 | X-H torsion
[ 9082 9073 9072 9070 ] final   -1.25 input   59.99 | X-H torsion
[ 9108 9100 9101 9102 ] final  116.08 input   89.92 | X-H torsion
[ 9186 9177 9178 9179 ] final  102.74 input  116.56 | X-H torsion
[ 3596 3592 3593 3594 ] final  135.98 input   84.58 | X-H torsion
[ 8978 8972 8973 8974 ] final   74.83 input   29.23 | X-H torsion
[ 9134 9130 9131 9132 ] final  161.63 input  126.15 | X-H torsion
[ 4890 4885 4884 4881 ] final -148.04 input   60.00 | X-H torsion
[ 8982 8977 8976 8973 ] final   49.54 input   60.00 | X-H torsion
[ 3570 3563 3564 3565 ] final -110.01 input  100.61 | X-H torsion
[ 3548 3542 3543 3544 ] final   19.03 input   82.26 | X-H torsion
[ 8482 8476 8477 8478 ] final  -50.67 input   53.28 | X-H torsion
[ 8948 8937 8938 8939 ] final  -35.97 input   48.32 | X-H torsion
[ 12872 12863 12862 12860 ] final  -35.40 input   60.03 | X-H torsion
[ 5550 5545 5544 5541 ] final   18.60 input   60.00 | X-H torsion
[ 5574 5565 5566 5567 ] final   53.32 input   49.17 | X-H torsion
[ 8328 8319 8318 8316 ] final  -34.91 input   60.00 | X-H torsion
[ 5546 5540 5541 5542 ] final -167.36 input  103.84 | X-H torsion
[ 8508 8500 8501 8502 ] final    5.74 input   63.30 | X-H torsion
[ 8486 8481 8480 8477 ] final   86.97 input   60.02 | X-H torsion
[ 8536 8528 8529 8530 ] final -129.71 input   88.08 | X-H torsion
[ 12864 12852 12853 12854 ] final  -52.37 input  106.44 | X-H torsion
[ 12900 12891 12892 12893 ] final -150.51 input   37.87 | X-H torsion
[ 9214 9206 9207 9208 ] final -179.61 input   89.32 | X-H torsion
[ 11050 11043 11044 11045 ] final   42.55 input   52.80 | X-H torsion
[ 5606 5598 5599 5600 ] final -122.85 input  119.27 | X-H torsion
[ 8570 8562 8563 8564 ] final   -0.91 input   68.50 | X-H torsion
[ 13460 8400 8399 8398 ] final  141.55 input   -0.00 | X-H torsion
[ 13464 8940 8939 8938 ] final   97.80 input   -0.00 | X-H torsion
[ 13467 8995 8994 8993 ] final  -25.69 input    0.00 | X-H torsion
[ 13470 9019 9018 9017 ] final  108.87 input    0.00 | X-H torsion
[ 13473 9065 9064 9063 ] final  161.22 input   -0.00 | X-H torsion
[ 13478 9103 9102 9101 ] final -133.22 input   -0.00 | X-H torsion
[ 13491 8975 8974 8973 ] final -159.62 input    0.00 | X-H torsion
[ 13493 8345 8344 8343 ] final  -42.44 input    0.00 | X-H torsion
[ 13501 8448 8447 8446 ] final -137.16 input    0.00 | X-H torsion
[ 13503 3502 3501 3500 ] final  150.08 input    0.00 | X-H torsion
[ 13506 8426 8425 8424 ] final  112.96 input    0.00 | X-H torsion
[ 13514 5543 5542 5541 ] final   60.43 input   -0.00 | X-H torsion
[ 13525 9180 9179 9178 ] final  -47.83 input    0.00 | X-H torsion
[ 13531 5517 5516 5515 ] final -111.89 input    0.00 | X-H torsion
[ 13535 8503 8502 8501 ] final  -71.31 input   -0.00 | X-H torsion
[ 13538 5568 5567 5566 ] final  -94.32 input   -0.00 | X-H torsion
[ 13540 8479 8478 8477 ] final -107.72 input   -0.00 | X-H torsion
[ 13545 12894 12893 12892 ] final  -48.48 input    0.00 | X-H torsion
[ 13547 12822 12821 12820 ] final  146.01 input   -0.00 | X-H torsion

> <Gold.Protein.ActiveResidues>
 TRP311  MET341  HIS342  TRP414  ALA417  ARG419  CYS420  VAL421  GLY422  LEU460 
 SER462  ASN481  SER482  GLN483  LEU484  ARG486  ALA502  ASN503  TRP566  TYR567 
 GLY568  LEU569  PRO570  ALA571  VAL572  SER573  ASN574  MET575  LEU576  PHE589 
 SER590  GLY591  TRP592  TYR593  MET594  GLY595  GLU597  ILE598  ARG601  ASP602 
 ARG608  ILE653  VAL654  TRP683  PHE709  GLU710  TYR711  GLN712  ASP714  HEM750 
 H4B760 

> <Gold.Protein.RotatedAtoms>
  121.0332  251.6993  329.6676 H   0  0  0  0  0  0  0  0  0  0  0  0  # atno 3548 bound_to 3542
  122.4816  249.4514  329.4218 H   0  0  0  0  0  0  0  0  0  0  0  0  # atno 3570 bound_to 3563
  123.7061  247.3099  327.5598 H   0  0  0  0  0  0  0  0  0  0  0  0  # atno 3596 bound_to 3592
  125.2148  246.7062  319.0182 H   0  0  0  0  0  0  0  0  0  0  0  0  # atno 4890 bound_to 4885
  105.6847  244.7677  318.2014 H   0  0  0  0  0  0  0  0  0  0  0  0  # atno 5546 bound_to 5540
  107.6242  242.8520  320.1964 H   0  0  0  0  0  0  0  0  0  0  0  0  # atno 5550 bound_to 5545
  108.5099  242.8122  318.6356 H   0  0  0  0  0  0  0  0  0  0  0  0  # atno 5574 bound_to 5565
  110.7672  243.3784  316.1169 H   0  0  0  0  0  0  0  0  0  0  0  0  # atno 5606 bound_to 5598
  111.2806  237.7451  321.1405 H   0  0  0  0  0  0  0  0  0  0  0  0  # atno 8328 bound_to 8319
  116.6672  242.3263  318.8172 H   0  0  0  0  0  0  0  0  0  0  0  0  # atno 8428 bound_to 8423
  114.8122  245.3361  317.7259 H   0  0  0  0  0  0  0  0  0  0  0  0  # atno 8452 bound_to 8445
  112.0074  247.6267  318.6513 H   0  0  0  0  0  0  0  0  0  0  0  0  # atno 8482 bound_to 8476
  109.0332  246.0246  316.2318 H   0  0  0  0  0  0  0  0  0  0  0  0  # atno 8486 bound_to 8481
  110.7301  249.2492  318.5591 H   0  0  0  0  0  0  0  0  0  0  0  0  # atno 8508 bound_to 8500
  109.5252  250.9165  319.6926 H   0  0  0  0  0  0  0  0  0  0  0  0  # atno 8536 bound_to 8528
  111.4890  254.8507  320.0130 H   0  0  0  0  0  0  0  0  0  0  0  0  # atno 8570 bound_to 8562
  115.5983  247.7295  315.4393 H   0  0  0  0  0  0  0  0  0  0  0  0  # atno 8948 bound_to 8937
  119.3830  246.8700  315.6835 H   0  0  0  0  0  0  0  0  0  0  0  0  # atno 8978 bound_to 8972
  120.9376  244.2831  315.4017 H   0  0  0  0  0  0  0  0  0  0  0  0  # atno 8982 bound_to 8977
  120.6221  245.2558  318.8342 H   0  0  0  0  0  0  0  0  0  0  0  0  # atno 8996 bound_to 8992
  123.0869  242.5495  319.5020 H   0  0  0  0  0  0  0  0  0  0  0  0  # atno 9030 bound_to 9016
  121.5504  239.2322  321.7676 H   0  0  0  0  0  0  0  0  0  0  0  0  # atno 9074 bound_to 9062
  114.6990  238.5225  323.1339 H   0  0  0  0  0  0  0  0  0  0  0  0  # atno 9082 bound_to 9073
  121.4843  240.6154  326.1105 H   0  0  0  0  0  0  0  0  0  0  0  0  # atno 9108 bound_to 9100
  123.2878  237.0735  328.0868 H   0  0  0  0  0  0  0  0  0  0  0  0  # atno 9134 bound_to 9130
  119.0623  237.9020  329.1148 H   0  0  0  0  0  0  0  0  0  0  0  0  # atno 9186 bound_to 9177
  116.8969  236.9727  327.4305 H   0  0  0  0  0  0  0  0  0  0  0  0  # atno 9214 bound_to 9206
  125.1621  237.7135  325.7051 H   0  0  0  0  0  0  0  0  0  0  0  0  # atno 11050 bound_to 11043
  110.1856  256.3655  323.5061 H   0  0  0  0  0  0  0  0  0  0  0  0  # atno 12864 bound_to 12852
  110.9266  250.5539  328.7093 H   0  0  0  0  0  0  0  0  0  0  0  0  # atno 12872 bound_to 12863
  107.3761  255.6637  323.0309 H   0  0  0  0  0  0  0  0  0  0  0  0  # atno 12900 bound_to 12891
  118.1483  243.3753  317.9132 LP  0  0  0  0  0  0  0  0  0  0  0  0  # atno 13460 bound_to 8400
  118.5932  242.9795  319.5397 LP  0  0  0  0  0  0  0  0  0  0  0  0  # atno 13461 bound_to 8400
  115.0481  241.8313  318.3890 LP  0  0  0  0  0  0  0  0  0  0  0  0  # atno 13462 bound_to 8423
  115.2081  244.8912  319.3697 LP  0  0  0  0  0  0  0  0  0  0  0  0  # atno 13463 bound_to 8445
  116.4182  245.7645  316.8628 LP  0  0  0  0  0  0  0  0  0  0  0  0  # atno 13464 bound_to 8940
  116.6859  246.7811  318.2394 LP  0  0  0  0  0  0  0  0  0  0  0  0  # atno 13465 bound_to 8940
  120.6163  243.7163  318.0029 LP  0  0  0  0  0  0  0  0  0  0  0  0  # atno 13466 bound_to 8992
  121.9207  242.1301  317.4865 LP  0  0  0  0  0  0  0  0  0  0  0  0  # atno 13467 bound_to 8995
  122.9478  240.9928  318.2936 LP  0  0  0  0  0  0  0  0  0  0  0  0  # atno 13468 bound_to 8995
  122.6711  242.9196  321.1566 LP  0  0  0  0  0  0  0  0  0  0  0  0  # atno 13469 bound_to 9016
  121.4168  242.0488  323.1866 LP  0  0  0  0  0  0  0  0  0  0  0  0  # atno 13470 bound_to 9019
  123.1458  242.1341  323.2443 LP  0  0  0  0  0  0  0  0  0  0  0  0  # atno 13471 bound_to 9019
  122.9755  239.8659  322.5589 LP  0  0  0  0  0  0  0  0  0  0  0  0  # atno 13472 bound_to 9062
  124.2644  239.0132  325.5895 LP  0  0  0  0  0  0  0  0  0  0  0  0  # atno 13473 bound_to 9065
  123.7682  238.1734  324.1582 LP  0  0  0  0  0  0  0  0  0  0  0  0  # atno 13474 bound_to 9065
  114.8928  237.1172  322.3364 LP  0  0  0  0  0  0  0  0  0  0  0  0  # atno 13475 bound_to 9073
  115.1255  238.5367  321.5635 LP  0  0  0  0  0  0  0  0  0  0  0  0  # atno 13476 bound_to 9073
  122.0057  239.0923  325.4265 LP  0  0  0  0  0  0  0  0  0  0  0  0  # atno 13477 bound_to 9100
  119.8533  237.8348  328.5154 LP  0  0  0  0  0  0  0  0  0  0  0  0  # atno 13478 bound_to 9103
  120.0562  238.4325  326.9025 LP  0  0  0  0  0  0  0  0  0  0  0  0  # atno 13479 bound_to 9103
  118.1218  237.6475  330.5611 LP  0  0  0  0  0  0  0  0  0  0  0  0  # atno 13480 bound_to 9177
  124.9147  248.4146  328.1654 LP  0  0  0  0  0  0  0  0  0  0  0  0  # atno 13489 bound_to 3592
  118.5088  247.2524  317.1464 LP  0  0  0  0  0  0  0  0  0  0  0  0  # atno 13490 bound_to 8972
  122.6392  245.6970  317.1090 LP  0  0  0  0  0  0  0  0  0  0  0  0  # atno 13491 bound_to 8975
  121.3967  246.7656  316.5485 LP  0  0  0  0  0  0  0  0  0  0  0  0  # atno 13492 bound_to 8975
  120.5263  236.5699  319.8235 LP  0  0  0  0  0  0  0  0  0  0  0  0  # atno 13493 bound_to 8345
  120.8001  237.6569  318.5032 LP  0  0  0  0  0  0  0  0  0  0  0  0  # atno 13494 bound_to 8345
  121.8365  237.9275  328.5586 LP  0  0  0  0  0  0  0  0  0  0  0  0  # atno 13495 bound_to 9130
  126.3436  245.8132  318.2584 LP  0  0  0  0  0  0  0  0  0  0  0  0  # atno 13496 bound_to 4885
  124.7784  245.3483  318.2341 LP  0  0  0  0  0  0  0  0  0  0  0  0  # atno 13497 bound_to 4885
  119.8514  245.0689  314.4798 LP  0  0  0  0  0  0  0  0  0  0  0  0  # atno 13498 bound_to 8977
  119.9103  243.4371  314.4656 LP  0  0  0  0  0  0  0  0  0  0  0  0  # atno 13499 bound_to 8977
  122.1528  247.8505  328.7970 LP  0  0  0  0  0  0  0  0  0  0  0  0  # atno 13500 bound_to 3563
  113.5946  248.7963  317.3013 LP  0  0  0  0  0  0  0  0  0  0  0  0  # atno 13501 bound_to 8448
  114.7301  247.4906  317.2245 LP  0  0  0  0  0  0  0  0  0  0  0  0  # atno 13502 bound_to 8448
  119.5356  248.8543  329.6732 LP  0  0  0  0  0  0  0  0  0  0  0  0  # atno 13503 bound_to 3502
  119.0615  249.4120  331.2430 LP  0  0  0  0  0  0  0  0  0  0  0  0  # atno 13504 bound_to 3502
  119.5150  251.2011  328.9621 LP  0  0  0  0  0  0  0  0  0  0  0  0  # atno 13505 bound_to 3542
  112.6041  243.8590  317.7686 LP  0  0  0  0  0  0  0  0  0  0  0  0  # atno 13506 bound_to 8426
  113.2622  244.4357  316.2738 LP  0  0  0  0  0  0  0  0  0  0  0  0  # atno 13507 bound_to 8426
  111.8334  246.0964  317.8303 LP  0  0  0  0  0  0  0  0  0  0  0  0  # atno 13510 bound_to 8476
  115.6807  249.4456  315.7567 LP  0  0  0  0  0  0  0  0  0  0  0  0  # atno 13511 bound_to 8937
  109.9694  245.8564  320.3334 LP  0  0  0  0  0  0  0  0  0  0  0  0  # atno 13514 bound_to 5543
  110.4792  245.8706  318.6781 LP  0  0  0  0  0  0  0  0  0  0  0  0  # atno 13515 bound_to 5543
  111.2116  251.8172  329.6949 LP  0  0  0  0  0  0  0  0  0  0  0  0  # atno 13516 bound_to 12863
  112.1935  251.5340  328.4212 LP  0  0  0  0  0  0  0  0  0  0  0  0  # atno 13517 bound_to 12863
  106.1198  242.9062  320.8140 LP  0  0  0  0  0  0  0  0  0  0  0  0  # atno 13518 bound_to 5545
  107.4155  243.0245  321.8009 LP  0  0  0  0  0  0  0  0  0  0  0  0  # atno 13519 bound_to 5545
  109.0458  244.4529  318.9207 LP  0  0  0  0  0  0  0  0  0  0  0  0  # atno 13520 bound_to 5565
  112.5222  238.7812  320.9580 LP  0  0  0  0  0  0  0  0  0  0  0  0  # atno 13523 bound_to 8319
  112.5547  237.6653  322.1498 LP  0  0  0  0  0  0  0  0  0  0  0  0  # atno 13524 bound_to 8319
  114.4554  237.8297  329.4567 LP  0  0  0  0  0  0  0  0  0  0  0  0  # atno 13525 bound_to 9180
  114.3040  237.2012  327.8498 LP  0  0  0  0  0  0  0  0  0  0  0  0  # atno 13526 bound_to 9180
  107.0254  243.7788  317.6802 LP  0  0  0  0  0  0  0  0  0  0  0  0  # atno 13529 bound_to 5540
  109.6825  248.1589  317.6923 LP  0  0  0  0  0  0  0  0  0  0  0  0  # atno 13530 bound_to 8500
  108.2369  246.0108  316.7817 LP  0  0  0  0  0  0  0  0  0  0  0  0  # atno 13531 bound_to 5517
  106.7500  246.8676  316.5468 LP  0  0  0  0  0  0  0  0  0  0  0  0  # atno 13532 bound_to 5517
  110.2935  245.5775  317.1596 LP  0  0  0  0  0  0  0  0  0  0  0  0  # atno 13533 bound_to 8481
  110.0672  244.8869  315.6973 LP  0  0  0  0  0  0  0  0  0  0  0  0  # atno 13534 bound_to 8481
  107.4333  252.2923  319.2465 LP  0  0  0  0  0  0  0  0  0  0  0  0  # atno 13535 bound_to 8503
  108.0427  251.8435  320.8044 LP  0  0  0  0  0  0  0  0  0  0  0  0  # atno 13536 bound_to 8503
  110.7164  251.2029  318.4512 LP  0  0  0  0  0  0  0  0  0  0  0  0  # atno 13537 bound_to 8528
  109.1761  241.0204  316.5193 LP  0  0  0  0  0  0  0  0  0  0  0  0  # atno 13538 bound_to 5568
  108.5245  242.5530  316.0435 LP  0  0  0  0  0  0  0  0  0  0  0  0  # atno 13539 bound_to 5568
  109.6221  250.2607  315.8569 LP  0  0  0  0  0  0  0  0  0  0  0  0  # atno 13540 bound_to 8479
  108.8476  248.7582  315.4791 LP  0  0  0  0  0  0  0  0  0  0  0  0  # atno 13541 bound_to 8479
  105.1955  252.9321  321.9376 LP  0  0  0  0  0  0  0  0  0  0  0  0  # atno 13545 bound_to 12894
  103.9729  253.0823  323.1552 LP  0  0  0  0  0  0  0  0  0  0  0  0  # atno 13546 bound_to 12894
  110.2360  254.5767  322.2650 LP  0  0  0  0  0  0  0  0  0  0  0  0  # atno 13547 bound_to 12822
  110.7654  255.9810  321.4004 LP  0  0  0  0  0  0  0  0  0  0  0  0  # atno 13548 bound_to 12822
  110.0968  256.1598  325.2385 LP  0  0  0  0  0  0  0  0  0  0  0  0  # atno 13549 bound_to 12852
  106.7678  254.0505  322.7431 LP  0  0  0  0  0  0  0  0  0  0  0  0  # atno 13550 bound_to 12891

> <Gold.Score>
     Fitness  S(hb_ext) S(vdw_ext)  S(hb_int)    S(int)      intcor
     34.52       6.05      20.92       0.00      -0.30      -0.76

> <Gold.Goldscore.Fitness>
34.5158

> <Gold.Goldscore.Internal.Vdw>
-0.6133

> <Gold.Goldscore.Internal.Torsion>
-0.4471

> <Gold.Goldscore.External.Vdw>
20.9184

> <Gold.Goldscore.Internal.HBond>
0.0000

> <Gold.Goldscore.External.HBond>
6.0486

> <Gold.Goldscore.Internal.Correction>
-0.7650

> <Gold.Goldscore.Hbonds>
donor molecule, donor type, donor heavy atom, donor atom, acceptor molecule, acceptor atom, score
      P1  H  9513  9527       L1    17  1.00
      L1  H    10    23       P1  9073  0.02

> <Gold.Goldscore.Internal.Vdw.Weighted>
-0.6133

> <Gold.Goldscore.Internal.Torsion.Weighted>
-0.4471

> <Gold.Goldscore.External.Vdw.Weighted>
28.7627

> <Gold.Goldscore.Internal.HBond.Weighted>
0.0000

> <Gold.Goldscore.External.HBond.Weighted>
6.0486

> <Gold.Goldscore.Internal.Correction.Weighted>
-0.7650

> <Gold.Rescore>
     Score     S(PLP)   S(hbond)     S(cho)   S(metal)  DE(clash)   DE(tors)     intcor
     11.63     -12.98       0.30       0.00       0.00       0.00       1.13       ----

> <Gold.PLP.Fitness>
11.6280

> <Gold.PLP.PLP>
-12.9813

> <Gold.PLP.part.hbond>
-5.2471

> <Gold.PLP.part.metal>
0.0000

> <Gold.PLP.part.buried>
5.4586

> <Gold.PLP.part.nonpolar>
-17.6026

> <Gold.PLP.part.repulsive>
3.3181

> <Gold.PLP.ligand.clash>
0.0000

> <Gold.PLP.ligand.torsion>
1.1312

> <Gold.PLP.Chemscore.Hbond>
0.3030

> <Gold.PLP.Chemscore.CHOScore>
0.0000

> <Gold.PLP.Chemscore.Metal>
0.0000

> <Gold.Chemscore.Hbonds>
donor molecule, donor type, donor heavy atom, donor atom, acceptor molecule, acceptor atom, score
      P1  H  9513  9527       L1    17  1.00

> <Gold.PLP.Chemscore.Internal.Correction>
   9.000000E+99

#       Name:                CT1002167954
#       Creating user name   hitesit
#       Creation time:       Sun Apr 16 22:52:06 2023


#       File generated by GOLD software.
#

@<TRIPOS>MOLECULE
CT1002167954|ligand_prepared|mol2|1|dock5
    29    30     1
SMALL
NO_CHARGES


@<TRIPOS>ATOM
      1 C1         113.0031 241.4554 326.0198 C.3            1 RES1               0.0000
      2 C2         112.5057 241.6068 327.4718 C.ar           1 RES1               0.0000
      3 C3         113.4978 240.0184 325.8840 C.2            1 RES1               0.0000
      4 C4         111.8155 241.7918 325.1248 C.2            1 RES1               0.0000
      5 C5         114.1629 242.4108 325.6538 C.3            1 RES1               0.0000
      6 C6         111.1773 241.3487 327.7963 C.ar           1 RES1               0.0000
      7 C7         113.3626 242.0005 328.4963 C.ar           1 RES1               0.0000
      8 N8         112.7226 239.1476 325.1764 N.am           1 RES1               0.0000
      9 O9         114.5324 239.6451 326.4229 O.2            1 RES1               0.0000
     10 N10        111.2909 240.7902 324.3506 N.am           1 RES1               0.0000
     11 O11        111.3187 242.9110 325.0954 O.2            1 RES1               0.0000
     12 C12        114.4935 242.4333 324.1698 C.3            1 RES1               0.0000
     13 C13        110.7225 241.4766 329.0983 C.ar           1 RES1               0.0000
     14 C14        112.9056 242.1280 329.7976 C.ar           1 RES1               0.0000
     15 C15        111.6712 239.4758 324.3588 C.2            1 RES1               0.0000
     16 C16        111.5863 241.8658 330.0998 C.ar           1 RES1               0.0000
     17 O17        111.1148 238.6225 323.6737 O.2            1 RES1               0.0000
     18 H18        113.8974 243.4265 325.9719 H              1 RES1               0.0000
     19 H19        115.0585 242.1084 326.2105 H              1 RES1               0.0000
     20 H20        110.4823 241.0437 327.0211 H              1 RES1               0.0000
     21 H21        114.4044 242.2130 328.2816 H              1 RES1               0.0000
     22 H22        112.9453 238.1611 325.2631 H              1 RES1               0.0000
     23 H23        110.5482 241.0483 323.7086 H              1 RES1               0.0000
     24 H24        115.3136 243.1191 323.9677 H              1 RES1               0.0000
     25 H25        114.7864 241.4439 323.8247 H              1 RES1               0.0000
     26 H26        113.6322 242.7542 323.5875 H              1 RES1               0.0000
     27 H27        109.6829 241.2704 329.3307 H              1 RES1               0.0000
     28 H28        113.5888 242.4352 330.5825 H              1 RES1               0.0000
     29 H29        111.2298 241.9655 331.1197 H              1 RES1               0.0000
@<TRIPOS>BOND
    1    1    2 1     
    2    1    3 1     
    3    1    4 1     
    4    1    5 1     
    5    2    6 ar    
    6    2    7 ar    
    7    3    8 1     
    8    3    9 2     
    9    4   10 1     
   10    4   11 2     
   11    5   12 1     
   12    5   18 1     
   13    5   19 1     
   14    6   13 ar    
   15    6   20 1     
   16    7   14 ar    
   17    7   21 1     
   18    8   15 1     
   19    8   22 1     
   20   10   15 1     
   21   10   23 1     
   22   12   24 1     
   23   12   25 1     
   24   12   26 1     
   25   13   16 ar    
   26   13   27 1     
   27   14   16 ar    
   28   14   28 1     
   29   15   17 2     
   30   16   29 1     
@<TRIPOS>SUBSTRUCTURE
      1 RES1           1
@<TRIPOS>SET
DONOR_HYDROGENS      STATIC     ATOMS    <user>   **** ""
2 22 23
ATOM$RED        STATIC     ATOMS    COLORGROUP SYSTEM
2 22 23
@<TRIPOS>COMMENT
> <Gold.Version>
2022.3.0

> <Gold.Id.Protein>
unknown|5adf_clean|pdb

> <Gold.Protein.RotatedTorsions>
[ 8428 8423 8424 8425 ] final  131.41 input   46.96 | X-H torsion
[ 8452 8445 8446 8447 ] final  162.08 input  111.34 | X-H torsion
[ 8996 8992 8993 8994 ] final   96.73 input   44.62 | X-H torsion
[ 9030 9016 9017 9018 ] final   45.27 input   32.56 | X-H torsion
[ 9074 9062 9063 9064 ] final  -42.39 input   99.28 | X-H torsion
[ 9082 9073 9072 9070 ] final -164.98 input   59.99 | X-H torsion
[ 9108 9100 9101 9102 ] final -126.60 input   89.92 | X-H torsion
[ 9186 9177 9178 9179 ] final  134.88 input  116.56 | X-H torsion
[ 3596 3592 3593 3594 ] final   71.96 input   84.58 | X-H torsion
[ 8978 8972 8973 8974 ] final  132.15 input   29.23 | X-H torsion
[ 9134 9130 9131 9132 ] final -110.19 input  126.15 | X-H torsion
[ 4890 4885 4884 4881 ] final -135.52 input   60.00 | X-H torsion
[ 8982 8977 8976 8973 ] final  -87.25 input   60.00 | X-H torsion
[ 3570 3563 3564 3565 ] final   83.92 input  100.61 | X-H torsion
[ 3548 3542 3543 3544 ] final  100.53 input   82.26 | X-H torsion
[ 8482 8476 8477 8478 ] final  -43.80 input   53.28 | X-H torsion
[ 8948 8937 8938 8939 ] final   10.48 input   48.32 | X-H torsion
[ 12872 12863 12862 12860 ] final   62.72 input   60.03 | X-H torsion
[ 5550 5545 5544 5541 ] final   40.39 input   60.00 | X-H torsion
[ 5574 5565 5566 5567 ] final  -28.23 input   49.17 | X-H torsion
[ 8328 8319 8318 8316 ] final  104.93 input   60.00 | X-H torsion
[ 5546 5540 5541 5542 ] final -132.37 input  103.84 | X-H torsion
[ 8508 8500 8501 8502 ] final -174.32 input   63.30 | X-H torsion
[ 8486 8481 8480 8477 ] final  -84.86 input   60.02 | X-H torsion
[ 8536 8528 8529 8530 ] final -110.20 input   88.08 | X-H torsion
[ 12864 12852 12853 12854 ] final  -21.56 input  106.44 | X-H torsion
[ 12900 12891 12892 12893 ] final -119.77 input   37.87 | X-H torsion
[ 9214 9206 9207 9208 ] final -135.85 input   89.32 | X-H torsion
[ 11050 11043 11044 11045 ] final    7.66 input   52.80 | X-H torsion
[ 5606 5598 5599 5600 ] final -112.95 input  119.27 | X-H torsion
[ 8570 8562 8563 8564 ] final  124.54 input   68.50 | X-H torsion
[ 13460 8400 8399 8398 ] final    6.84 input   -0.00 | X-H torsion
[ 13464 8940 8939 8938 ] final  138.93 input   -0.00 | X-H torsion
[ 13467 8995 8994 8993 ] final -163.33 input    0.00 | X-H torsion
[ 13470 9019 9018 9017 ] final  161.44 input    0.00 | X-H torsion
[ 13473 9065 9064 9063 ] final  -74.87 input   -0.00 | X-H torsion
[ 13478 9103 9102 9101 ] final  -67.86 input   -0.00 | X-H torsion
[ 13491 8975 8974 8973 ] final  -15.81 input    0.00 | X-H torsion
[ 13493 8345 8344 8343 ] final  -93.17 input    0.00 | X-H torsion
[ 13501 8448 8447 8446 ] final  130.35 input    0.00 | X-H torsion
[ 13503 3502 3501 3500 ] final  169.68 input    0.00 | X-H torsion
[ 13506 8426 8425 8424 ] final -121.39 input    0.00 | X-H torsion
[ 13514 5543 5542 5541 ] final   69.84 input   -0.00 | X-H torsion
[ 13525 9180 9179 9178 ] final  -44.04 input    0.00 | X-H torsion
[ 13531 5517 5516 5515 ] final  -86.90 input    0.00 | X-H torsion
[ 13535 8503 8502 8501 ] final  -73.94 input   -0.00 | X-H torsion
[ 13538 5568 5567 5566 ] final   64.39 input   -0.00 | X-H torsion
[ 13540 8479 8478 8477 ] final  -96.06 input   -0.00 | X-H torsion
[ 13545 12894 12893 12892 ] final  -82.02 input    0.00 | X-H torsion
[ 13547 12822 12821 12820 ] final   62.85 input   -0.00 | X-H torsion

> <Gold.Protein.ActiveResidues>
 TRP311  MET341  HIS342  TRP414  ALA417  ARG419  CYS420  VAL421  GLY422  LEU460 
 SER462  ASN481  SER482  GLN483  LEU484  ARG486  ALA502  ASN503  TRP566  TYR567 
 GLY568  LEU569  PRO570  ALA571  VAL572  SER573  ASN574  MET575  LEU576  PHE589 
 SER590  GLY591  TRP592  TYR593  MET594  GLY595  GLU597  ILE598  ARG601  ASP602 
 ARG608  ILE653  VAL654  TRP683  PHE709  GLU710  TYR711  GLN712  ASP714  HEM750 
 H4B760 

> <Gold.Protein.RotatedAtoms>
  120.5007  252.0465  328.7072 H   0  0  0  0  0  0  0  0  0  0  0  0  # atno 3548 bound_to 3542
  122.0702  247.7923  328.9865 H   0  0  0  0  0  0  0  0  0  0  0  0  # atno 3570 bound_to 3563
  123.7489  248.1988  327.2788 H   0  0  0  0  0  0  0  0  0  0  0  0  # atno 3596 bound_to 3592
  125.0256  246.6305  319.0030 H   0  0  0  0  0  0  0  0  0  0  0  0  # atno 4890 bound_to 4885
  105.9483  245.0392  317.8314 H   0  0  0  0  0  0  0  0  0  0  0  0  # atno 5546 bound_to 5540
  107.8592  242.8827  320.4591 H   0  0  0  0  0  0  0  0  0  0  0  0  # atno 5550 bound_to 5545
  108.4806  243.7483  317.9515 H   0  0  0  0  0  0  0  0  0  0  0  0  # atno 5574 bound_to 5565
  110.6743  243.2691  316.1684 H   0  0  0  0  0  0  0  0  0  0  0  0  # atno 5606 bound_to 5598
  112.7695  237.8920  322.0650 H   0  0  0  0  0  0  0  0  0  0  0  0  # atno 8328 bound_to 8319
  115.9760  241.5660  317.8926 H   0  0  0  0  0  0  0  0  0  0  0  0  # atno 8428 bound_to 8423
  115.2359  244.9316  319.3968 H   0  0  0  0  0  0  0  0  0  0  0  0  # atno 8452 bound_to 8445
  111.9090  247.6120  318.6863 H   0  0  0  0  0  0  0  0  0  0  0  0  # atno 8482 bound_to 8476
  110.5721  245.0346  316.6098 H   0  0  0  0  0  0  0  0  0  0  0  0  # atno 8486 bound_to 8481
  109.6929  248.1439  317.6857 H   0  0  0  0  0  0  0  0  0  0  0  0  # atno 8508 bound_to 8500
  109.3587  251.0651  319.4964 H   0  0  0  0  0  0  0  0  0  0  0  0  # atno 8536 bound_to 8528
  109.9305  255.0492  320.1053 H   0  0  0  0  0  0  0  0  0  0  0  0  # atno 8570 bound_to 8562
  115.4762  247.8918  316.1055 H   0  0  0  0  0  0  0  0  0  0  0  0  # atno 8948 bound_to 8937
  118.5583  246.6857  315.7233 H   0  0  0  0  0  0  0  0  0  0  0  0  # atno 8978 bound_to 8972
  119.6974  244.8887  314.3413 H   0  0  0  0  0  0  0  0  0  0  0  0  # atno 8982 bound_to 8977
  120.3702  244.6449  319.2475 H   0  0  0  0  0  0  0  0  0  0  0  0  # atno 8996 bound_to 8992
  123.2727  242.9050  321.1044 H   0  0  0  0  0  0  0  0  0  0  0  0  # atno 9030 bound_to 9016
  122.7815  240.1797  322.5382 H   0  0  0  0  0  0  0  0  0  0  0  0  # atno 9074 bound_to 9062
  115.0697  237.3877  321.7154 H   0  0  0  0  0  0  0  0  0  0  0  0  # atno 9082 bound_to 9073
  122.5633  239.8115  325.4124 H   0  0  0  0  0  0  0  0  0  0  0  0  # atno 9108 bound_to 9100
  122.2951  237.4803  327.4779 H   0  0  0  0  0  0  0  0  0  0  0  0  # atno 9134 bound_to 9130
  119.1047  238.3090  329.3760 H   0  0  0  0  0  0  0  0  0  0  0  0  # atno 9186 bound_to 9177
  116.3744  237.1623  327.7948 H   0  0  0  0  0  0  0  0  0  0  0  0  # atno 9214 bound_to 9206
  125.2188  237.2080  325.8452 H   0  0  0  0  0  0  0  0  0  0  0  0  # atno 11050 bound_to 11043
  109.9091  256.7121  323.6587 H   0  0  0  0  0  0  0  0  0  0  0  0  # atno 12864 bound_to 12852
  112.0719  251.2458  328.2498 H   0  0  0  0  0  0  0  0  0  0  0  0  # atno 12872 bound_to 12863
  107.1011  255.5671  323.3984 H   0  0  0  0  0  0  0  0  0  0  0  0  # atno 12900 bound_to 12891
  118.8503  242.5564  319.0930 LP  0  0  0  0  0  0  0  0  0  0  0  0  # atno 13460 bound_to 8400
  117.8911  243.7984  318.3600 LP  0  0  0  0  0  0  0  0  0  0  0  0  # atno 13461 bound_to 8400
  115.7254  242.5762  319.2949 LP  0  0  0  0  0  0  0  0  0  0  0  0  # atno 13462 bound_to 8423
  114.7954  245.2852  317.7422 LP  0  0  0  0  0  0  0  0  0  0  0  0  # atno 13463 bound_to 8445
  116.8306  245.5162  317.2349 LP  0  0  0  0  0  0  0  0  0  0  0  0  # atno 13464 bound_to 8940
  116.2736  247.0294  317.8673 LP  0  0  0  0  0  0  0  0  0  0  0  0  # atno 13465 bound_to 8940
  120.8607  244.3089  317.6020 LP  0  0  0  0  0  0  0  0  0  0  0  0  # atno 13466 bound_to 8992
  122.3473  240.9021  318.4447 LP  0  0  0  0  0  0  0  0  0  0  0  0  # atno 13467 bound_to 8995
  122.5211  242.2209  317.3354 LP  0  0  0  0  0  0  0  0  0  0  0  0  # atno 13468 bound_to 8995
  122.4885  242.5701  319.5811 LP  0  0  0  0  0  0  0  0  0  0  0  0  # atno 13469 bound_to 9016
  121.7570  241.6627  323.7552 LP  0  0  0  0  0  0  0  0  0  0  0  0  # atno 13470 bound_to 9019
  122.8055  242.5203  322.6757 LP  0  0  0  0  0  0  0  0  0  0  0  0  # atno 13471 bound_to 9019
  121.7792  238.9451  321.8101 LP  0  0  0  0  0  0  0  0  0  0  0  0  # atno 13472 bound_to 9062
  123.7029  237.7860  324.8714 LP  0  0  0  0  0  0  0  0  0  0  0  0  # atno 13473 bound_to 9065
  124.3298  239.4006  324.8762 LP  0  0  0  0  0  0  0  0  0  0  0  0  # atno 13474 bound_to 9065
  114.9851  238.9665  322.1007 LP  0  0  0  0  0  0  0  0  0  0  0  0  # atno 13475 bound_to 9073
  114.6601  237.8298  323.2271 LP  0  0  0  0  0  0  0  0  0  0  0  0  # atno 13476 bound_to 9073
  120.9580  239.8728  326.1043 LP  0  0  0  0  0  0  0  0  0  0  0  0  # atno 13477 bound_to 9100
  119.8847  238.7479  328.3154 LP  0  0  0  0  0  0  0  0  0  0  0  0  # atno 13478 bound_to 9103
  120.0248  237.5194  327.1025 LP  0  0  0  0  0  0  0  0  0  0  0  0  # atno 13479 bound_to 9103
  118.0799  237.2451  330.3028 LP  0  0  0  0  0  0  0  0  0  0  0  0  # atno 13480 bound_to 9177
  124.8726  247.5407  328.4416 LP  0  0  0  0  0  0  0  0  0  0  0  0  # atno 13489 bound_to 3592
  119.3174  247.4331  317.1074 LP  0  0  0  0  0  0  0  0  0  0  0  0  # atno 13490 bound_to 8972
  121.4749  246.3887  316.1728 LP  0  0  0  0  0  0  0  0  0  0  0  0  # atno 13491 bound_to 8975
  122.5610  246.0739  317.4847 LP  0  0  0  0  0  0  0  0  0  0  0  0  # atno 13492 bound_to 8975
  120.0994  237.1767  319.8176 LP  0  0  0  0  0  0  0  0  0  0  0  0  # atno 13493 bound_to 8345
  121.2270  237.0501  318.5091 LP  0  0  0  0  0  0  0  0  0  0  0  0  # atno 13494 bound_to 8345
  122.8021  237.5318  329.1509 LP  0  0  0  0  0  0  0  0  0  0  0  0  # atno 13495 bound_to 9130
  126.3767  245.9871  318.3631 LP  0  0  0  0  0  0  0  0  0  0  0  0  # atno 13496 bound_to 4885
  124.9357  245.2506  318.1447 LP  0  0  0  0  0  0  0  0  0  0  0  0  # atno 13497 bound_to 4885
  120.1065  243.3412  314.6334 LP  0  0  0  0  0  0  0  0  0  0  0  0  # atno 13498 bound_to 8977
  120.9044  244.5547  315.3800 LP  0  0  0  0  0  0  0  0  0  0  0  0  # atno 13499 bound_to 8977
  122.5515  249.4584  329.2189 LP  0  0  0  0  0  0  0  0  0  0  0  0  # atno 13500 bound_to 3563
  113.8499  247.8663  316.5042 LP  0  0  0  0  0  0  0  0  0  0  0  0  # atno 13501 bound_to 8448
  114.4749  248.4205  318.0215 LP  0  0  0  0  0  0  0  0  0  0  0  0  # atno 13502 bound_to 8448
  119.7969  248.8486  329.8095 LP  0  0  0  0  0  0  0  0  0  0  0  0  # atno 13503 bound_to 3502
  118.8002  249.4177  331.1067 LP  0  0  0  0  0  0  0  0  0  0  0  0  # atno 13504 bound_to 3502
  120.0368  250.8609  329.9032 LP  0  0  0  0  0  0  0  0  0  0  0  0  # atno 13505 bound_to 3542
  112.9152  244.9679  316.7449 LP  0  0  0  0  0  0  0  0  0  0  0  0  # atno 13506 bound_to 8426
  112.9512  243.3268  317.2975 LP  0  0  0  0  0  0  0  0  0  0  0  0  # atno 13507 bound_to 8426
  111.9303  246.1109  317.7959 LP  0  0  0  0  0  0  0  0  0  0  0  0  # atno 13510 bound_to 8476
  115.8002  249.2868  315.1048 LP  0  0  0  0  0  0  0  0  0  0  0  0  # atno 13511 bound_to 8937
  110.0617  245.7495  320.3487 LP  0  0  0  0  0  0  0  0  0  0  0  0  # atno 13514 bound_to 5543
  110.3868  245.9775  318.6628 LP  0  0  0  0  0  0  0  0  0  0  0  0  # atno 13515 bound_to 5543
  110.7507  250.6624  328.9999 LP  0  0  0  0  0  0  0  0  0  0  0  0  # atno 13516 bound_to 12863
  111.5012  251.9922  329.5787 LP  0  0  0  0  0  0  0  0  0  0  0  0  # atno 13517 bound_to 12863
  106.2322  242.8702  320.4777 LP  0  0  0  0  0  0  0  0  0  0  0  0  # atno 13518 bound_to 5545
  107.0663  243.0296  321.8725 LP  0  0  0  0  0  0  0  0  0  0  0  0  # atno 13519 bound_to 5545
  109.0742  243.5447  319.5844 LP  0  0  0  0  0  0  0  0  0  0  0  0  # atno 13520 bound_to 5565
  111.3302  237.5445  321.3896 LP  0  0  0  0  0  0  0  0  0  0  0  0  # atno 13523 bound_to 8319
  112.2472  238.7541  320.7873 LP  0  0  0  0  0  0  0  0  0  0  0  0  # atno 13524 bound_to 8319
  114.4585  237.8821  329.4339 LP  0  0  0  0  0  0  0  0  0  0  0  0  # atno 13525 bound_to 9180
  114.3009  237.1489  327.8726 LP  0  0  0  0  0  0  0  0  0  0  0  0  # atno 13526 bound_to 9180
  106.7663  243.5119  318.0438 LP  0  0  0  0  0  0  0  0  0  0  0  0  # atno 13529 bound_to 5540
  110.7119  249.2559  318.5590 LP  0  0  0  0  0  0  0  0  0  0  0  0  # atno 13530 bound_to 8500
  108.1648  245.9502  316.4190 LP  0  0  0  0  0  0  0  0  0  0  0  0  # atno 13531 bound_to 5517
  106.8221  246.9282  316.9096 LP  0  0  0  0  0  0  0  0  0  0  0  0  # atno 13532 bound_to 5517
  109.3885  245.3234  315.5306 LP  0  0  0  0  0  0  0  0  0  0  0  0  # atno 13533 bound_to 8481
  109.4232  246.1374  316.9458 LP  0  0  0  0  0  0  0  0  0  0  0  0  # atno 13534 bound_to 8481
  107.4574  252.3239  319.2472 LP  0  0  0  0  0  0  0  0  0  0  0  0  # atno 13535 bound_to 8503
  108.0185  251.8119  320.8038 LP  0  0  0  0  0  0  0  0  0  0  0  0  # atno 13536 bound_to 8503
  110.8810  251.0560  318.6452 LP  0  0  0  0  0  0  0  0  0  0  0  0  # atno 13537 bound_to 8528
  108.4443  242.5483  316.3533 LP  0  0  0  0  0  0  0  0  0  0  0  0  # atno 13538 bound_to 5568
  109.2563  241.0251  316.2095 LP  0  0  0  0  0  0  0  0  0  0  0  0  # atno 13539 bound_to 5568
  109.7446  250.2055  315.7433 LP  0  0  0  0  0  0  0  0  0  0  0  0  # atno 13540 bound_to 8479
  108.7251  248.8134  315.5927 LP  0  0  0  0  0  0  0  0  0  0  0  0  # atno 13541 bound_to 8479
  104.7614  252.8099  321.7220 LP  0  0  0  0  0  0  0  0  0  0  0  0  # atno 13545 bound_to 12894
  104.4069  253.2044  323.3708 LP  0  0  0  0  0  0  0  0  0  0  0  0  # atno 13546 bound_to 12894
  111.2868  254.9486  321.9845 LP  0  0  0  0  0  0  0  0  0  0  0  0  # atno 13547 bound_to 12822
  109.7146  255.6091  321.6809 LP  0  0  0  0  0  0  0  0  0  0  0  0  # atno 13548 bound_to 12822
  110.3674  255.8205  325.0891 LP  0  0  0  0  0  0  0  0  0  0  0  0  # atno 13549 bound_to 12852
  107.0360  254.1447  322.3846 LP  0  0  0  0  0  0  0  0  0  0  0  0  # atno 13550 bound_to 12891

> <Gold.Score>
     Fitness  S(hb_ext) S(vdw_ext)  S(hb_int)    S(int)      intcor
     33.91       3.30      22.63       0.00      -0.52      -0.76

> <Gold.Goldscore.Fitness>
33.9060

> <Gold.Goldscore.Internal.Vdw>
-0.7610

> <Gold.Goldscore.Internal.Torsion>
-0.5195

> <Gold.Goldscore.External.Vdw>
22.6315

> <Gold.Goldscore.Internal.HBond>
0.0000

> <Gold.Goldscore.External.HBond>
3.3032

> <Gold.Goldscore.Internal.Correction>
-0.7650

> <Gold.Goldscore.Hbonds>
donor molecule, donor type, donor heavy atom, donor atom, acceptor molecule, acceptor atom, score
      P1  H  9513  9527       L1    17  0.01
      P1  H  9206  9214       L1     9  0.06
      L1  H     8    22       P1  9345  0.52

> <Gold.Goldscore.Internal.Vdw.Weighted>
-0.7610

> <Gold.Goldscore.Internal.Torsion.Weighted>
-0.5195

> <Gold.Goldscore.External.Vdw.Weighted>
31.1183

> <Gold.Goldscore.Internal.HBond.Weighted>
0.0000

> <Gold.Goldscore.External.HBond.Weighted>
3.3032

> <Gold.Goldscore.Internal.Correction.Weighted>
-0.7650

> <Gold.Rescore>
     Score     S(PLP)   S(hbond)     S(cho)   S(metal)  DE(clash)   DE(tors)     intcor
     13.18     -12.92       0.86       0.00       0.00       2.04       0.15       ----

> <Gold.PLP.Fitness>
13.1802

> <Gold.PLP.PLP>
-12.9247

> <Gold.PLP.part.hbond>
-2.9591

> <Gold.PLP.part.metal>
0.0000

> <Gold.PLP.part.buried>
6.7631

> <Gold.PLP.part.nonpolar>
-19.2068

> <Gold.PLP.part.repulsive>
2.3617

> <Gold.PLP.ligand.clash>
2.0357

> <Gold.PLP.ligand.torsion>
0.1504

> <Gold.PLP.Chemscore.Hbond>
0.8640

> <Gold.PLP.Chemscore.CHOScore>
0.0000

> <Gold.PLP.Chemscore.Metal>
0.0000

> <Gold.Chemscore.Hbonds>
donor molecule, donor type, donor heavy atom, donor atom, acceptor molecule, acceptor atom, score
      L1  H     8    22       P1  9345  0.75
      P1  H  5687  5700       L1    17  0.10
      P1  H  8319  8328       L1    17  0.02

> <Gold.PLP.Chemscore.Internal.Correction>
   9.000000E+99

#       Name:                CT1002167954
#       Creating user name   hitesit
#       Creation time:       Sun Apr 16 22:52:07 2023


#       File generated by GOLD software.
#

@<TRIPOS>MOLECULE
CT1002167954|ligand_prepared|mol2|1|dock6
    29    30     1
SMALL
NO_CHARGES


@<TRIPOS>ATOM
      1 C1         113.2596 241.6269 325.9833 C.3            1 RES1               0.0000
      2 C2         113.0778 243.0663 325.4602 C.ar           1 RES1               0.0000
      3 C3         111.8619 241.1115 326.3138 C.2            1 RES1               0.0000
      4 C4         113.9608 240.8543 324.8715 C.2            1 RES1               0.0000
      5 C5         114.1325 241.5302 327.2562 C.3            1 RES1               0.0000
      6 C6         111.9026 243.4436 324.8174 C.ar           1 RES1               0.0000
      7 C7         114.0737 244.0270 325.6150 C.ar           1 RES1               0.0000
      8 N8         111.3093 240.1964 325.4669 N.am           1 RES1               0.0000
      9 O9         111.2383 241.5310 327.2809 O.2            1 RES1               0.0000
     10 N10        113.2708 239.8401 324.2605 N.am           1 RES1               0.0000
     11 O11        115.0985 241.1254 324.5077 O.2            1 RES1               0.0000
     12 C12        113.9700 240.2214 328.0131 C.3            1 RES1               0.0000
     13 C13        111.7279 244.7353 324.3491 C.ar           1 RES1               0.0000
     14 C14        113.8970 245.3182 325.1457 C.ar           1 RES1               0.0000
     15 C15        111.9659 239.4963 324.4869 C.2            1 RES1               0.0000
     16 C16        112.7246 245.6735 324.5132 C.ar           1 RES1               0.0000
     17 O17        111.3979 238.6077 323.8585 O.2            1 RES1               0.0000
     18 H18        115.1857 241.6451 326.9717 H              1 RES1               0.0000
     19 H19        113.8736 242.3597 327.9257 H              1 RES1               0.0000
     20 H20        111.1081 242.7183 324.6770 H              1 RES1               0.0000
     21 H21        115.0047 243.7698 326.1085 H              1 RES1               0.0000
     22 H22        110.3159 240.0161 325.5719 H              1 RES1               0.0000
     23 H23        113.7769 239.2905 323.5734 H              1 RES1               0.0000
     24 H24        114.6042 240.2058 328.8970 H              1 RES1               0.0000
     25 H25        112.9390 240.0865 328.3334 H              1 RES1               0.0000
     26 H26        114.2432 239.3761 327.3850 H              1 RES1               0.0000
     27 H27        110.8039 245.0095 323.8508 H              1 RES1               0.0000
     28 H28        114.6844 246.0531 325.2765 H              1 RES1               0.0000
     29 H29        112.5873 246.6854 324.1466 H              1 RES1               0.0000
@<TRIPOS>BOND
    1    1    2 1     
    2    1    3 1     
    3    1    4 1     
    4    1    5 1     
    5    2    6 ar    
    6    2    7 ar    
    7    3    8 1     
    8    3    9 2     
    9    4   10 1     
   10    4   11 2     
   11    5   12 1     
   12    5   18 1     
   13    5   19 1     
   14    6   13 ar    
   15    6   20 1     
   16    7   14 ar    
   17    7   21 1     
   18    8   15 1     
   19    8   22 1     
   20   10   15 1     
   21   10   23 1     
   22   12   24 1     
   23   12   25 1     
   24   12   26 1     
   25   13   16 ar    
   26   13   27 1     
   27   14   16 ar    
   28   14   28 1     
   29   15   17 2     
   30   16   29 1     
@<TRIPOS>SUBSTRUCTURE
      1 RES1           1
@<TRIPOS>SET
DONOR_HYDROGENS      STATIC     ATOMS    <user>   **** ""
2 22 23
ATOM$RED        STATIC     ATOMS    COLORGROUP SYSTEM
2 22 23
@<TRIPOS>COMMENT
> <Gold.Version>
2022.3.0

> <Gold.Id.Protein>
unknown|5adf_clean|pdb

> <Gold.Protein.RotatedTorsions>
[ 8428 8423 8424 8425 ] final   46.85 input   46.96 | X-H torsion
[ 8452 8445 8446 8447 ] final   58.22 input  111.34 | X-H torsion
[ 8996 8992 8993 8994 ] final -164.33 input   44.62 | X-H torsion
[ 9030 9016 9017 9018 ] final  125.05 input   32.56 | X-H torsion
[ 9074 9062 9063 9064 ] final  -29.52 input   99.28 | X-H torsion
[ 9082 9073 9072 9070 ] final  -59.46 input   59.99 | X-H torsion
[ 9108 9100 9101 9102 ] final  -55.77 input   89.92 | X-H torsion
[ 9186 9177 9178 9179 ] final -121.19 input  116.56 | X-H torsion
[ 3596 3592 3593 3594 ] final -165.20 input   84.58 | X-H torsion
[ 8978 8972 8973 8974 ] final -170.80 input   29.23 | X-H torsion
[ 9134 9130 9131 9132 ] final -128.87 input  126.15 | X-H torsion
[ 4890 4885 4884 4881 ] final  -16.37 input   60.00 | X-H torsion
[ 8982 8977 8976 8973 ] final -102.74 input   60.00 | X-H torsion
[ 3570 3563 3564 3565 ] final  -68.52 input  100.61 | X-H torsion
[ 3548 3542 3543 3544 ] final   15.58 input   82.26 | X-H torsion
[ 8482 8476 8477 8478 ] final   56.85 input   53.28 | X-H torsion
[ 8948 8937 8938 8939 ] final   95.56 input   48.32 | X-H torsion
[ 12872 12863 12862 12860 ] final   76.11 input   60.03 | X-H torsion
[ 5550 5545 5544 5541 ] final  164.16 input   60.00 | X-H torsion
[ 5574 5565 5566 5567 ] final   41.79 input   49.17 | X-H torsion
[ 8328 8319 8318 8316 ] final -155.93 input   60.00 | X-H torsion
[ 5546 5540 5541 5542 ] final -132.03 input  103.84 | X-H torsion
[ 8508 8500 8501 8502 ] final   95.20 input   63.30 | X-H torsion
[ 8486 8481 8480 8477 ] final   55.01 input   60.02 | X-H torsion
[ 8536 8528 8529 8530 ] final  146.18 input   88.08 | X-H torsion
[ 12864 12852 12853 12854 ] final   75.81 input  106.44 | X-H torsion
[ 12900 12891 12892 12893 ] final -110.45 input   37.87 | X-H torsion
[ 9214 9206 9207 9208 ] final  108.20 input   89.32 | X-H torsion
[ 11050 11043 11044 11045 ] final -150.25 input   52.80 | X-H torsion
[ 5606 5598 5599 5600 ] final   86.68 input  119.27 | X-H torsion
[ 8570 8562 8563 8564 ] final -178.35 input   68.50 | X-H torsion
[ 13460 8400 8399 8398 ] final -106.13 input   -0.00 | X-H torsion
[ 13464 8940 8939 8938 ] final  -60.64 input   -0.00 | X-H torsion
[ 13467 8995 8994 8993 ] final   89.33 input    0.00 | X-H torsion
[ 13470 9019 9018 9017 ] final  -96.05 input    0.00 | X-H torsion
[ 13473 9065 9064 9063 ] final -138.24 input   -0.00 | X-H torsion
[ 13478 9103 9102 9101 ] final  -75.82 input   -0.00 | X-H torsion
[ 13491 8975 8974 8973 ] final   69.38 input    0.00 | X-H torsion
[ 13493 8345 8344 8343 ] final -120.19 input    0.00 | X-H torsion
[ 13501 8448 8447 8446 ] final  -91.20 input    0.00 | X-H torsion
[ 13503 3502 3501 3500 ] final   11.36 input    0.00 | X-H torsion
[ 13506 8426 8425 8424 ] final -110.68 input    0.00 | X-H torsion
[ 13514 5543 5542 5541 ] final -145.85 input   -0.00 | X-H torsion
[ 13525 9180 9179 9178 ] final   77.84 input    0.00 | X-H torsion
[ 13531 5517 5516 5515 ] final  -71.92 input    0.00 | X-H torsion
[ 13535 8503 8502 8501 ] final -143.81 input   -0.00 | X-H torsion
[ 13538 5568 5567 5566 ] final -113.00 input   -0.00 | X-H torsion
[ 13540 8479 8478 8477 ] final   54.57 input   -0.00 | X-H torsion
[ 13545 12894 12893 12892 ] final   63.44 input    0.00 | X-H torsion
[ 13547 12822 12821 12820 ] final   55.30 input   -0.00 | X-H torsion

> <Gold.Protein.ActiveResidues>
 TRP311  MET341  HIS342  TRP414  ALA417  ARG419  CYS420  VAL421  GLY422  LEU460 
 SER462  ASN481  SER482  GLN483  LEU484  ARG486  ALA502  ASN503  TRP566  TYR567 
 GLY568  LEU569  PRO570  ALA571  VAL572  SER573  ASN574  MET575  LEU576  PHE589 
 SER590  GLY591  TRP592  TYR593  MET594  GLY595  GLU597  ILE598  ARG601  ASP602 
 ARG608  ILE653  VAL654  TRP683  PHE709  GLU710  TYR711  GLN712  ASP714  HEM750 
 H4B760 

> <Gold.Protein.RotatedAtoms>
  121.0245  251.6646  329.7069 H   0  0  0  0  0  0  0  0  0  0  0  0  # atno 3548 bound_to 3542
  122.7124  249.3875  328.8396 H   0  0  0  0  0  0  0  0  0  0  0  0  # atno 3570 bound_to 3563
  124.2836  247.0311  328.1397 H   0  0  0  0  0  0  0  0  0  0  0  0  # atno 3596 bound_to 3592
  124.9273  245.2622  318.1502 H   0  0  0  0  0  0  0  0  0  0  0  0  # atno 4890 bound_to 4885
  105.9518  245.0406  317.8277 H   0  0  0  0  0  0  0  0  0  0  0  0  # atno 5546 bound_to 5540
  107.0048  243.0300  321.8643 H   0  0  0  0  0  0  0  0  0  0  0  0  # atno 5550 bound_to 5545
  108.4614  242.8749  318.4757 H   0  0  0  0  0  0  0  0  0  0  0  0  # atno 5574 bound_to 5565
  112.2725  242.5966  316.3122 H   0  0  0  0  0  0  0  0  0  0  0  0  # atno 5606 bound_to 5598
  112.5333  238.7741  320.9704 H   0  0  0  0  0  0  0  0  0  0  0  0  # atno 8328 bound_to 8319
  114.9956  241.8929  318.4763 H   0  0  0  0  0  0  0  0  0  0  0  0  # atno 8428 bound_to 8423
  115.4653  245.8488  318.3717 H   0  0  0  0  0  0  0  0  0  0  0  0  # atno 8452 bound_to 8445
  111.1156  246.5480  318.4180 H   0  0  0  0  0  0  0  0  0  0  0  0  # atno 8482 bound_to 8476
  109.2178  246.1546  316.6955 H   0  0  0  0  0  0  0  0  0  0  0  0  # atno 8486 bound_to 8481
  110.0888  248.2421  318.8590 H   0  0  0  0  0  0  0  0  0  0  0  0  # atno 8508 bound_to 8500
  110.6593  250.6217  319.6072 H   0  0  0  0  0  0  0  0  0  0  0  0  # atno 8536 bound_to 8528
  109.8470  254.5644  319.4167 H   0  0  0  0  0  0  0  0  0  0  0  0  # atno 8570 bound_to 8562
  115.5299  249.0608  316.3430 H   0  0  0  0  0  0  0  0  0  0  0  0  # atno 8948 bound_to 8937
  118.0867  246.8474  316.4022 H   0  0  0  0  0  0  0  0  0  0  0  0  # atno 8978 bound_to 8972
  119.5947  244.6802  314.2432 H   0  0  0  0  0  0  0  0  0  0  0  0  # atno 8982 bound_to 8977
  120.8585  245.2944  318.1693 H   0  0  0  0  0  0  0  0  0  0  0  0  # atno 8996 bound_to 8992
  123.7213  242.6738  320.0945 H   0  0  0  0  0  0  0  0  0  0  0  0  # atno 9030 bound_to 9016
  122.9059  240.0279  322.5706 H   0  0  0  0  0  0  0  0  0  0  0  0  # atno 9074 bound_to 9062
  114.6842  237.6115  323.1382 H   0  0  0  0  0  0  0  0  0  0  0  0  # atno 9082 bound_to 9073
  121.9069  239.0214  325.4663 H   0  0  0  0  0  0  0  0  0  0  0  0  # atno 9108 bound_to 9100
  122.5478  237.3446  327.4544 H   0  0  0  0  0  0  0  0  0  0  0  0  # atno 9134 bound_to 9130
  118.4061  238.2347  330.5654 H   0  0  0  0  0  0  0  0  0  0  0  0  # atno 9186 bound_to 9177
  117.6743  236.3914  327.8319 H   0  0  0  0  0  0  0  0  0  0  0  0  # atno 9214 bound_to 9206
  126.5774  237.2662  324.7807 H   0  0  0  0  0  0  0  0  0  0  0  0  # atno 11050 bound_to 11043
  109.6966  256.7507  324.9670 H   0  0  0  0  0  0  0  0  0  0  0  0  # atno 12864 bound_to 12852
  112.1545  251.4239  328.3455 H   0  0  0  0  0  0  0  0  0  0  0  0  # atno 12872 bound_to 12863
  107.0120  255.4951  323.4850 H   0  0  0  0  0  0  0  0  0  0  0  0  # atno 12900 bound_to 12891
  118.0346  243.7294  319.3030 LP  0  0  0  0  0  0  0  0  0  0  0  0  # atno 13460 bound_to 8400
  118.7068  242.6254  318.1500 LP  0  0  0  0  0  0  0  0  0  0  0  0  # atno 13461 bound_to 8400
  116.6859  242.2559  318.7230 LP  0  0  0  0  0  0  0  0  0  0  0  0  # atno 13462 bound_to 8423
  114.5720  244.3919  318.7407 LP  0  0  0  0  0  0  0  0  0  0  0  0  # atno 13463 bound_to 8445
  116.4647  246.9543  318.0783 LP  0  0  0  0  0  0  0  0  0  0  0  0  # atno 13464 bound_to 8940
  116.6395  245.5913  317.0239 LP  0  0  0  0  0  0  0  0  0  0  0  0  # atno 13465 bound_to 8940
  120.3870  243.6788  318.6478 LP  0  0  0  0  0  0  0  0  0  0  0  0  # atno 13466 bound_to 8992
  123.2787  241.6427  317.7158 LP  0  0  0  0  0  0  0  0  0  0  0  0  # atno 13467 bound_to 8995
  121.5898  241.4802  318.0642 LP  0  0  0  0  0  0  0  0  0  0  0  0  # atno 13468 bound_to 8995
  122.0473  242.7974  320.5740 LP  0  0  0  0  0  0  0  0  0  0  0  0  # atno 13469 bound_to 9016
  123.0659  241.9163  323.5375 LP  0  0  0  0  0  0  0  0  0  0  0  0  # atno 13470 bound_to 9019
  121.4966  242.2666  322.8934 LP  0  0  0  0  0  0  0  0  0  0  0  0  # atno 13471 bound_to 9019
  121.6582  239.0926  321.7786 LP  0  0  0  0  0  0  0  0  0  0  0  0  # atno 13472 bound_to 9062
  123.9547  238.1985  325.6422 LP  0  0  0  0  0  0  0  0  0  0  0  0  # atno 13473 bound_to 9065
  124.0779  238.9880  324.1055 LP  0  0  0  0  0  0  0  0  0  0  0  0  # atno 13474 bound_to 9065
  115.1097  237.5687  321.5680 LP  0  0  0  0  0  0  0  0  0  0  0  0  # atno 13475 bound_to 9073
  114.9236  239.0022  322.3276 LP  0  0  0  0  0  0  0  0  0  0  0  0  # atno 13476 bound_to 9073
  121.5954  240.6399  326.0520 LP  0  0  0  0  0  0  0  0  0  0  0  0  # atno 13477 bound_to 9100
  119.8743  238.6575  328.3939 LP  0  0  0  0  0  0  0  0  0  0  0  0  # atno 13478 bound_to 9103
  120.0352  237.6098  327.0240 LP  0  0  0  0  0  0  0  0  0  0  0  0  # atno 13479 bound_to 9103
  118.7706  237.3186  329.1269 LP  0  0  0  0  0  0  0  0  0  0  0  0  # atno 13480 bound_to 9177
  124.3469  248.6887  327.5953 LP  0  0  0  0  0  0  0  0  0  0  0  0  # atno 13489 bound_to 3592
  119.7797  247.2746  316.4417 LP  0  0  0  0  0  0  0  0  0  0  0  0  # atno 13490 bound_to 8972
  121.6637  246.9319  317.1943 LP  0  0  0  0  0  0  0  0  0  0  0  0  # atno 13491 bound_to 8975
  122.3723  245.5307  316.4632 LP  0  0  0  0  0  0  0  0  0  0  0  0  # atno 13492 bound_to 8975
  120.0319  237.5122  319.6019 LP  0  0  0  0  0  0  0  0  0  0  0  0  # atno 13493 bound_to 8345
  121.2946  236.7146  318.7248 LP  0  0  0  0  0  0  0  0  0  0  0  0  # atno 13494 bound_to 8345
  122.5564  237.6638  329.1738 LP  0  0  0  0  0  0  0  0  0  0  0  0  # atno 13495 bound_to 9130
  125.0356  246.6396  319.0104 LP  0  0  0  0  0  0  0  0  0  0  0  0  # atno 13496 bound_to 4885
  126.3759  245.9751  318.3557 LP  0  0  0  0  0  0  0  0  0  0  0  0  # atno 13497 bound_to 4885
  120.2976  243.3225  314.7998 LP  0  0  0  0  0  0  0  0  0  0  0  0  # atno 13498 bound_to 8977
  120.8167  244.7834  315.3125 LP  0  0  0  0  0  0  0  0  0  0  0  0  # atno 13499 bound_to 8977
  121.9291  247.9124  329.3611 LP  0  0  0  0  0  0  0  0  0  0  0  0  # atno 13500 bound_to 3563
  114.0103  248.7762  317.8342 LP  0  0  0  0  0  0  0  0  0  0  0  0  # atno 13501 bound_to 8448
  114.3145  247.5106  316.6915 LP  0  0  0  0  0  0  0  0  0  0  0  0  # atno 13502 bound_to 8448
  118.5794  249.3857  330.8694 LP  0  0  0  0  0  0  0  0  0  0  0  0  # atno 13503 bound_to 3502
  120.0176  248.8805  330.0469 LP  0  0  0  0  0  0  0  0  0  0  0  0  # atno 13504 bound_to 3502
  119.5235  251.2351  328.9236 LP  0  0  0  0  0  0  0  0  0  0  0  0  # atno 13505 bound_to 3542
  112.9931  244.9102  316.6157 LP  0  0  0  0  0  0  0  0  0  0  0  0  # atno 13506 bound_to 8426
  112.8733  243.3845  317.4267 LP  0  0  0  0  0  0  0  0  0  0  0  0  # atno 13507 bound_to 8426
  112.7112  247.1582  318.0599 LP  0  0  0  0  0  0  0  0  0  0  0  0  # atno 13510 bound_to 8476
  115.7477  248.1429  314.8724 LP  0  0  0  0  0  0  0  0  0  0  0  0  # atno 13511 bound_to 8937
  110.6936  245.5801  318.8353 LP  0  0  0  0  0  0  0  0  0  0  0  0  # atno 13514 bound_to 5543
  109.7550  246.1469  320.1762 LP  0  0  0  0  0  0  0  0  0  0  0  0  # atno 13515 bound_to 5543
  110.8466  250.5797  328.8203 LP  0  0  0  0  0  0  0  0  0  0  0  0  # atno 13516 bound_to 12863
  111.3222  251.8957  329.6621 LP  0  0  0  0  0  0  0  0  0  0  0  0  # atno 13517 bound_to 12863
  107.8950  242.8867  320.5097 LP  0  0  0  0  0  0  0  0  0  0  0  0  # atno 13518 bound_to 5545
  106.2644  242.8646  320.4248 LP  0  0  0  0  0  0  0  0  0  0  0  0  # atno 13519 bound_to 5545
  109.0929  244.3920  319.0758 LP  0  0  0  0  0  0  0  0  0  0  0  0  # atno 13520 bound_to 5565
  112.5417  237.6546  322.1516 LP  0  0  0  0  0  0  0  0  0  0  0  0  # atno 13523 bound_to 8319
  111.2737  237.7557  321.1275 LP  0  0  0  0  0  0  0  0  0  0  0  0  # atno 13524 bound_to 8319
  114.3756  237.9852  327.9257 LP  0  0  0  0  0  0  0  0  0  0  0  0  # atno 13525 bound_to 9180
  114.3838  237.0458  329.3808 LP  0  0  0  0  0  0  0  0  0  0  0  0  # atno 13526 bound_to 9180
  106.7628  243.5106  318.0474 LP  0  0  0  0  0  0  0  0  0  0  0  0  # atno 13529 bound_to 5540
  110.3190  249.1585  317.3946 LP  0  0  0  0  0  0  0  0  0  0  0  0  # atno 13530 bound_to 8500
  108.0595  245.9578  316.2194 LP  0  0  0  0  0  0  0  0  0  0  0  0  # atno 13531 bound_to 5517
  106.9274  246.9206  317.1091 LP  0  0  0  0  0  0  0  0  0  0  0  0  # atno 13532 bound_to 5517
  110.5361  245.2171  316.8754 LP  0  0  0  0  0  0  0  0  0  0  0  0  # atno 13533 bound_to 8481
  109.6388  245.1165  315.5147 LP  0  0  0  0  0  0  0  0  0  0  0  0  # atno 13534 bound_to 8481
  108.1424  252.7958  319.7875 LP  0  0  0  0  0  0  0  0  0  0  0  0  # atno 13535 bound_to 8503
  107.3336  251.3400  320.2635 LP  0  0  0  0  0  0  0  0  0  0  0  0  # atno 13536 bound_to 8503
  109.5952  251.4944  318.5357 LP  0  0  0  0  0  0  0  0  0  0  0  0  # atno 13537 bound_to 8528
  109.2493  241.0188  316.2478 LP  0  0  0  0  0  0  0  0  0  0  0  0  # atno 13538 bound_to 5568
  108.4513  242.5546  316.3150 LP  0  0  0  0  0  0  0  0  0  0  0  0  # atno 13539 bound_to 5568
  109.0623  248.7341  315.3229 LP  0  0  0  0  0  0  0  0  0  0  0  0  # atno 13540 bound_to 8479
  109.4074  250.2848  316.0131 LP  0  0  0  0  0  0  0  0  0  0  0  0  # atno 13541 bound_to 8479
  104.9138  253.2612  323.3059 LP  0  0  0  0  0  0  0  0  0  0  0  0  # atno 13545 bound_to 12894
  104.2546  252.7531  321.7869 LP  0  0  0  0  0  0  0  0  0  0  0  0  # atno 13546 bound_to 12894
  111.3274  255.0392  321.9284 LP  0  0  0  0  0  0  0  0  0  0  0  0  # atno 13547 bound_to 12822
  109.6740  255.5185  321.7370 LP  0  0  0  0  0  0  0  0  0  0  0  0  # atno 13548 bound_to 12822
  110.5755  255.7828  323.8085 LP  0  0  0  0  0  0  0  0  0  0  0  0  # atno 13549 bound_to 12852
  107.1230  254.2150  322.3000 LP  0  0  0  0  0  0  0  0  0  0  0  0  # atno 13550 bound_to 12891

> <Gold.Score>
     Fitness  S(hb_ext) S(vdw_ext)  S(hb_int)    S(int)      intcor
     33.55       2.15      23.69       0.00      -1.17      -0.76

> <Gold.Goldscore.Fitness>
33.5514

> <Gold.Goldscore.Internal.Vdw>
-1.0830

> <Gold.Goldscore.Internal.Torsion>
-0.8530

> <Gold.Goldscore.External.Vdw>
23.6891

> <Gold.Goldscore.Internal.HBond>
0.0000

> <Gold.Goldscore.External.HBond>
2.1498

> <Gold.Goldscore.Internal.Correction>
-0.7650

> <Gold.Goldscore.Hbonds>
donor molecule, donor type, donor heavy atom, donor atom, acceptor molecule, acceptor atom, score
      P1  H  9513  9527       L1    17  0.12
      L1  H    10    23       P1  9073  0.70

> <Gold.Goldscore.Internal.Vdw.Weighted>
-1.0830

> <Gold.Goldscore.Internal.Torsion.Weighted>
-0.8530

> <Gold.Goldscore.External.Vdw.Weighted>
32.5726

> <Gold.Goldscore.Internal.HBond.Weighted>
0.0000

> <Gold.Goldscore.External.HBond.Weighted>
2.1498

> <Gold.Goldscore.Internal.Correction.Weighted>
-0.7650

> <Gold.Rescore>
     Score     S(PLP)   S(hbond)     S(cho)   S(metal)  DE(clash)   DE(tors)     intcor
     18.18     -21.69       0.00       0.00       0.00       1.33       1.09       ----

> <Gold.PLP.Fitness>
18.1829

> <Gold.PLP.PLP>
-21.6947

> <Gold.PLP.part.hbond>
-4.3897

> <Gold.PLP.part.metal>
0.0000

> <Gold.PLP.part.buried>
2.8466

> <Gold.PLP.part.nonpolar>
-21.9791

> <Gold.PLP.part.repulsive>
1.1332

> <Gold.PLP.ligand.clash>
1.3255

> <Gold.PLP.ligand.torsion>
1.0931

> <Gold.PLP.Chemscore.Hbond>
0.0000

> <Gold.PLP.Chemscore.CHOScore>
0.0000

> <Gold.PLP.Chemscore.Metal>
0.0000

> <Gold.PLP.Chemscore.Internal.Correction>
   9.000000E+99

#       Name:                CT1002167954
#       Creating user name   hitesit
#       Creation time:       Sun Apr 16 22:52:08 2023


#       File generated by GOLD software.
#

@<TRIPOS>MOLECULE
CT1002167954|ligand_prepared|mol2|1|dock7
    29    30     1
SMALL
NO_CHARGES


@<TRIPOS>ATOM
      1 C1         111.4034 245.9860 324.8740 C.3            1 RES1               0.0000
      2 C2         112.9395 245.8468 324.8690 C.ar           1 RES1               0.0000
      3 C3         110.9934 246.2598 323.4300 C.2            1 RES1               0.0000
      4 C4         110.8584 244.6787 325.4383 C.2            1 RES1               0.0000
      5 C5         110.8838 247.1422 325.7598 C.3            1 RES1               0.0000
      6 C6         113.7524 246.9577 325.0733 C.ar           1 RES1               0.0000
      7 C7         113.5570 244.6157 324.6645 C.ar           1 RES1               0.0000
      8 N8         110.3956 245.2467 322.7400 N.am           1 RES1               0.0000
      9 O9         111.2268 247.3354 322.8924 O.2            1 RES1               0.0000
     10 N10        110.1223 243.8772 324.6054 N.am           1 RES1               0.0000
     11 O11        111.0737 244.3275 326.5918 O.2            1 RES1               0.0000
     12 C12        109.3858 247.0925 326.0162 C.3            1 RES1               0.0000
     13 C13        115.1325 246.8417 325.0761 C.ar           1 RES1               0.0000
     14 C14        114.9374 244.5020 324.6674 C.ar           1 RES1               0.0000
     15 C15        109.8922 244.0873 323.2730 C.2            1 RES1               0.0000
     16 C16        115.7259 245.6140 324.8736 C.ar           1 RES1               0.0000
     17 O17        109.2663 243.2929 322.5771 O.2            1 RES1               0.0000
     18 H18        111.4081 247.1123 326.7229 H              1 RES1               0.0000
     19 H19        111.1275 248.0956 325.2749 H              1 RES1               0.0000
     20 H20        113.3034 247.9325 325.2320 H              1 RES1               0.0000
     21 H21        112.9566 243.7276 324.4991 H              1 RES1               0.0000
     22 H22        110.3155 245.3617 321.7346 H              1 RES1               0.0000
     23 H23        109.7075 243.0472 325.0167 H              1 RES1               0.0000
     24 H24        109.0738 247.9257 326.6425 H              1 RES1               0.0000
     25 H25        108.8323 247.1457 325.0810 H              1 RES1               0.0000
     26 H26        109.1113 246.1682 326.5204 H              1 RES1               0.0000
     27 H27        115.7487 247.7201 325.2375 H              1 RES1               0.0000
     28 H28        115.4001 243.5338 324.5069 H              1 RES1               0.0000
     29 H29        116.8071 245.5233 324.8761 H              1 RES1               0.0000
@<TRIPOS>BOND
    1    1    2 1     
    2    1    3 1     
    3    1    4 1     
    4    1    5 1     
    5    2    6 ar    
    6    2    7 ar    
    7    3    8 1     
    8    3    9 2     
    9    4   10 1     
   10    4   11 2     
   11    5   12 1     
   12    5   18 1     
   13    5   19 1     
   14    6   13 ar    
   15    6   20 1     
   16    7   14 ar    
   17    7   21 1     
   18    8   15 1     
   19    8   22 1     
   20   10   15 1     
   21   10   23 1     
   22   12   24 1     
   23   12   25 1     
   24   12   26 1     
   25   13   16 ar    
   26   13   27 1     
   27   14   16 ar    
   28   14   28 1     
   29   15   17 2     
   30   16   29 1     
@<TRIPOS>SUBSTRUCTURE
      1 RES1           1
@<TRIPOS>SET
DONOR_HYDROGENS      STATIC     ATOMS    <user>   **** ""
2 22 23
ATOM$RED        STATIC     ATOMS    COLORGROUP SYSTEM
2 22 23
@<TRIPOS>COMMENT
> <Gold.Version>
2022.3.0

> <Gold.Id.Protein>
unknown|5adf_clean|pdb

> <Gold.Protein.RotatedTorsions>
[ 8428 8423 8424 8425 ] final -155.80 input   46.96 | X-H torsion
[ 8452 8445 8446 8447 ] final  174.59 input  111.34 | X-H torsion
[ 8996 8992 8993 8994 ] final  123.47 input   44.62 | X-H torsion
[ 9030 9016 9017 9018 ] final  140.58 input   32.56 | X-H torsion
[ 9074 9062 9063 9064 ] final -113.23 input   99.28 | X-H torsion
[ 9082 9073 9072 9070 ] final  -87.89 input   59.99 | X-H torsion
[ 9108 9100 9101 9102 ] final   76.94 input   89.92 | X-H torsion
[ 9186 9177 9178 9179 ] final  -66.50 input  116.56 | X-H torsion
[ 3596 3592 3593 3594 ] final  106.78 input   84.58 | X-H torsion
[ 8978 8972 8973 8974 ] final -156.85 input   29.23 | X-H torsion
[ 9134 9130 9131 9132 ] final   14.58 input  126.15 | X-H torsion
[ 4890 4885 4884 4881 ] final  -78.35 input   60.00 | X-H torsion
[ 8982 8977 8976 8973 ] final   -2.31 input   60.00 | X-H torsion
[ 3570 3563 3564 3565 ] final  -51.82 input  100.61 | X-H torsion
[ 3548 3542 3543 3544 ] final   38.13 input   82.26 | X-H torsion
[ 8482 8476 8477 8478 ] final  142.76 input   53.28 | X-H torsion
[ 8948 8937 8938 8939 ] final  -90.15 input   48.32 | X-H torsion
[ 12872 12863 12862 12860 ] final  -24.74 input   60.03 | X-H torsion
[ 5550 5545 5544 5541 ] final  112.72 input   60.00 | X-H torsion
[ 5574 5565 5566 5567 ] final  147.98 input   49.17 | X-H torsion
[ 8328 8319 8318 8316 ] final  177.21 input   60.00 | X-H torsion
[ 5546 5540 5541 5542 ] final -140.64 input  103.84 | X-H torsion
[ 8508 8500 8501 8502 ] final  -78.74 input   63.30 | X-H torsion
[ 8486 8481 8480 8477 ] final   89.35 input   60.02 | X-H torsion
[ 8536 8528 8529 8530 ] final -111.23 input   88.08 | X-H torsion
[ 12864 12852 12853 12854 ] final -116.33 input  106.44 | X-H torsion
[ 12900 12891 12892 12893 ] final -142.70 input   37.87 | X-H torsion
[ 9214 9206 9207 9208 ] final   -0.18 input   89.32 | X-H torsion
[ 11050 11043 11044 11045 ] final   67.39 input   52.80 | X-H torsion
[ 5606 5598 5599 5600 ] final   34.75 input  119.27 | X-H torsion
[ 8570 8562 8563 8564 ] final -119.63 input   68.50 | X-H torsion
[ 13460 8400 8399 8398 ] final  -52.08 input   -0.00 | X-H torsion
[ 13464 8940 8939 8938 ] final -135.04 input   -0.00 | X-H torsion
[ 13467 8995 8994 8993 ] final   67.77 input    0.00 | X-H torsion
[ 13470 9019 9018 9017 ] final    2.94 input    0.00 | X-H torsion
[ 13473 9065 9064 9063 ] final  100.08 input   -0.00 | X-H torsion
[ 13478 9103 9102 9101 ] final   98.71 input   -0.00 | X-H torsion
[ 13491 8975 8974 8973 ] final -150.99 input    0.00 | X-H torsion
[ 13493 8345 8344 8343 ] final  171.98 input    0.00 | X-H torsion
[ 13501 8448 8447 8446 ] final -137.16 input    0.00 | X-H torsion
[ 13503 3502 3501 3500 ] final  117.37 input    0.00 | X-H torsion
[ 13506 8426 8425 8424 ] final   68.03 input    0.00 | X-H torsion
[ 13514 5543 5542 5541 ] final   71.93 input   -0.00 | X-H torsion
[ 13525 9180 9179 9178 ] final -136.12 input    0.00 | X-H torsion
[ 13531 5517 5516 5515 ] final   53.65 input    0.00 | X-H torsion
[ 13535 8503 8502 8501 ] final   60.52 input   -0.00 | X-H torsion
[ 13538 5568 5567 5566 ] final -150.09 input   -0.00 | X-H torsion
[ 13540 8479 8478 8477 ] final  -17.73 input   -0.00 | X-H torsion
[ 13545 12894 12893 12892 ] final  -46.04 input    0.00 | X-H torsion
[ 13547 12822 12821 12820 ] final -174.68 input   -0.00 | X-H torsion

> <Gold.Protein.ActiveResidues>
 TRP311  MET341  HIS342  TRP414  ALA417  ARG419  CYS420  VAL421  GLY422  LEU460 
 SER462  ASN481  SER482  GLN483  LEU484  ARG486  ALA502  ASN503  TRP566  TYR567 
 GLY568  LEU569  PRO570  ALA571  VAL572  SER573  ASN574  MET575  LEU576  PHE589 
 SER590  GLY591  TRP592  TYR593  MET594  GLY595  GLU597  ILE598  ARG601  ASP602 
 ARG608  ILE653  VAL654  TRP683  PHE709  GLU710  TYR711  GLN712  ASP714  HEM750 
 H4B760 

> <Gold.Protein.RotatedAtoms>
  121.0310  251.8712  329.4307 H   0  0  0  0  0  0  0  0  0  0  0  0  # atno 3548 bound_to 3542
  122.7537  249.2462  328.6277 H   0  0  0  0  0  0  0  0  0  0  0  0  # atno 3570 bound_to 3563
  123.6212  247.6930  327.3527 H   0  0  0  0  0  0  0  0  0  0  0  0  # atno 3596 bound_to 3592
  124.5230  245.9679  318.6688 H   0  0  0  0  0  0  0  0  0  0  0  0  # atno 4890 bound_to 4885
  105.8677  244.9980  317.9205 H   0  0  0  0  0  0  0  0  0  0  0  0  # atno 5546 bound_to 5540
  107.7545  243.0017  321.5523 H   0  0  0  0  0  0  0  0  0  0  0  0  # atno 5550 bound_to 5545
  109.0821  243.4811  319.5998 H   0  0  0  0  0  0  0  0  0  0  0  0  # atno 5574 bound_to 5565
  111.7866  242.0534  316.5702 H   0  0  0  0  0  0  0  0  0  0  0  0  # atno 5606 bound_to 5598
  112.8169  238.6711  321.2836 H   0  0  0  0  0  0  0  0  0  0  0  0  # atno 8328 bound_to 8319
  116.7175  242.0561  318.4455 H   0  0  0  0  0  0  0  0  0  0  0  0  # atno 8428 bound_to 8423
  115.1166  244.7817  319.3744 H   0  0  0  0  0  0  0  0  0  0  0  0  # atno 8452 bound_to 8445
  112.0264  246.1203  317.7665 H   0  0  0  0  0  0  0  0  0  0  0  0  # atno 8482 bound_to 8476
  109.0285  246.0077  316.1971 H   0  0  0  0  0  0  0  0  0  0  0  0  # atno 8486 bound_to 8481
  110.3886  249.2078  317.4345 H   0  0  0  0  0  0  0  0  0  0  0  0  # atno 8508 bound_to 8500
  109.3654  251.0572  319.5081 H   0  0  0  0  0  0  0  0  0  0  0  0  # atno 8536 bound_to 8528
  110.5317  254.2168  319.0116 H   0  0  0  0  0  0  0  0  0  0  0  0  # atno 8570 bound_to 8562
  115.7677  248.2093  314.8166 H   0  0  0  0  0  0  0  0  0  0  0  0  # atno 8948 bound_to 8937
  118.0885  246.9285  316.6004 H   0  0  0  0  0  0  0  0  0  0  0  0  # atno 8978 bound_to 8972
  120.6419  245.0110  315.1724 H   0  0  0  0  0  0  0  0  0  0  0  0  # atno 8982 bound_to 8977
  120.4850  245.0128  319.1056 H   0  0  0  0  0  0  0  0  0  0  0  0  # atno 8996 bound_to 8992
  123.6237  242.6277  319.8825 H   0  0  0  0  0  0  0  0  0  0  0  0  # atno 9030 bound_to 9016
  121.8560  240.3347  322.1183 H   0  0  0  0  0  0  0  0  0  0  0  0  # atno 9074 bound_to 9062
  114.7618  237.2743  322.8355 H   0  0  0  0  0  0  0  0  0  0  0  0  # atno 9082 bound_to 9073
  121.0551  240.2096  326.1778 H   0  0  0  0  0  0  0  0  0  0  0  0  # atno 9108 bound_to 9100
  122.0807  237.8637  328.9863 H   0  0  0  0  0  0  0  0  0  0  0  0  # atno 9134 bound_to 9130
  118.0945  237.4939  330.5096 H   0  0  0  0  0  0  0  0  0  0  0  0  # atno 9186 bound_to 9177
  116.9974  236.3815  329.1097 H   0  0  0  0  0  0  0  0  0  0  0  0  # atno 9214 bound_to 9206
  125.2783  238.0140  325.5067 H   0  0  0  0  0  0  0  0  0  0  0  0  # atno 11050 bound_to 11043
  110.6334  255.6725  323.9462 H   0  0  0  0  0  0  0  0  0  0  0  0  # atno 12864 bound_to 12852
  111.0397  250.5367  328.5781 H   0  0  0  0  0  0  0  0  0  0  0  0  # atno 12872 bound_to 12863
  107.3117  255.6609  323.1327 H   0  0  0  0  0  0  0  0  0  0  0  0  # atno 12900 bound_to 12891
  118.4797  243.1448  319.5850 LP  0  0  0  0  0  0  0  0  0  0  0  0  # atno 13460 bound_to 8400
  118.2617  243.2100  317.8679 LP  0  0  0  0  0  0  0  0  0  0  0  0  # atno 13461 bound_to 8400
  114.9989  242.0960  318.7532 LP  0  0  0  0  0  0  0  0  0  0  0  0  # atno 13462 bound_to 8423
  114.9117  245.4312  317.7641 LP  0  0  0  0  0  0  0  0  0  0  0  0  # atno 13463 bound_to 8445
  117.0926  246.1269  318.2119 LP  0  0  0  0  0  0  0  0  0  0  0  0  # atno 13464 bound_to 8940
  116.0116  246.4187  316.8904 LP  0  0  0  0  0  0  0  0  0  0  0  0  # atno 13465 bound_to 8940
  120.7493  243.9520  317.7396 LP  0  0  0  0  0  0  0  0  0  0  0  0  # atno 13466 bound_to 8992
  123.1561  241.8816  317.5345 LP  0  0  0  0  0  0  0  0  0  0  0  0  # atno 13467 bound_to 8995
  121.7124  241.2414  318.2456 LP  0  0  0  0  0  0  0  0  0  0  0  0  # atno 13468 bound_to 8995
  122.1433  242.8427  320.7825 LP  0  0  0  0  0  0  0  0  0  0  0  0  # atno 13469 bound_to 9016
  122.5170  242.5910  322.5485 LP  0  0  0  0  0  0  0  0  0  0  0  0  # atno 13470 bound_to 9019
  122.0455  241.5919  323.8824 LP  0  0  0  0  0  0  0  0  0  0  0  0  # atno 13471 bound_to 9019
  122.6785  238.7945  322.2182 LP  0  0  0  0  0  0  0  0  0  0  0  0  # atno 13472 bound_to 9062
  124.3208  239.4007  324.8004 LP  0  0  0  0  0  0  0  0  0  0  0  0  # atno 13473 bound_to 9065
  123.7119  237.7859  324.9473 LP  0  0  0  0  0  0  0  0  0  0  0  0  # atno 13474 bound_to 9065
  115.1519  238.0109  321.4377 LP  0  0  0  0  0  0  0  0  0  0  0  0  # atno 13475 bound_to 9073
  114.8032  238.8995  322.7626 LP  0  0  0  0  0  0  0  0  0  0  0  0  # atno 13476 bound_to 9073
  122.4223  239.4863  325.3611 LP  0  0  0  0  0  0  0  0  0  0  0  0  # atno 13477 bound_to 9100
  120.0414  237.6781  326.9776 LP  0  0  0  0  0  0  0  0  0  0  0  0  # atno 13478 bound_to 9103
  119.8681  238.5893  328.4403 LP  0  0  0  0  0  0  0  0  0  0  0  0  # atno 13479 bound_to 9103
  119.0786  238.0510  329.1821 LP  0  0  0  0  0  0  0  0  0  0  0  0  # atno 13480 bound_to 9177
  124.9981  248.0379  328.3690 LP  0  0  0  0  0  0  0  0  0  0  0  0  # atno 13489 bound_to 3592
  119.7780  247.1951  316.2474 LP  0  0  0  0  0  0  0  0  0  0  0  0  # atno 13490 bound_to 8972
  122.6216  245.6334  316.9966 LP  0  0  0  0  0  0  0  0  0  0  0  0  # atno 13491 bound_to 8975
  121.4143  246.8292  316.6609 LP  0  0  0  0  0  0  0  0  0  0  0  0  # atno 13492 bound_to 8975
  120.4278  237.8592  318.7914 LP  0  0  0  0  0  0  0  0  0  0  0  0  # atno 13493 bound_to 8345
  120.8987  236.3676  319.5353 LP  0  0  0  0  0  0  0  0  0  0  0  0  # atno 13494 bound_to 8345
  123.0107  237.1588  327.6837 LP  0  0  0  0  0  0  0  0  0  0  0  0  # atno 13495 bound_to 9130
  125.9927  246.6442  318.8474 LP  0  0  0  0  0  0  0  0  0  0  0  0  # atno 13496 bound_to 4885
  125.8256  245.2603  317.9967 LP  0  0  0  0  0  0  0  0  0  0  0  0  # atno 13497 bound_to 4885
  119.5286  244.3766  314.1696 LP  0  0  0  0  0  0  0  0  0  0  0  0  # atno 13498 bound_to 8977
  120.5309  243.3962  315.0068 LP  0  0  0  0  0  0  0  0  0  0  0  0  # atno 13499 bound_to 8977
  121.8891  248.0494  329.5665 LP  0  0  0  0  0  0  0  0  0  0  0  0  # atno 13500 bound_to 3563
  113.5946  248.7962  317.3012 LP  0  0  0  0  0  0  0  0  0  0  0  0  # atno 13501 bound_to 8448
  114.7302  247.4906  317.2246 LP  0  0  0  0  0  0  0  0  0  0  0  0  # atno 13502 bound_to 8448
  119.0549  248.9337  329.6513 LP  0  0  0  0  0  0  0  0  0  0  0  0  # atno 13503 bound_to 3502
  119.5421  249.3325  331.2649 LP  0  0  0  0  0  0  0  0  0  0  0  0  # atno 13504 bound_to 3502
  119.5172  251.0326  329.1942 LP  0  0  0  0  0  0  0  0  0  0  0  0  # atno 13505 bound_to 3542
  112.8826  243.3761  317.4118 LP  0  0  0  0  0  0  0  0  0  0  0  0  # atno 13506 bound_to 8426
  112.9838  244.9187  316.6306 LP  0  0  0  0  0  0  0  0  0  0  0  0  # atno 13507 bound_to 8426
  111.8147  247.5791  318.7012 LP  0  0  0  0  0  0  0  0  0  0  0  0  # atno 13510 bound_to 8476
  115.5149  248.9761  316.3660 LP  0  0  0  0  0  0  0  0  0  0  0  0  # atno 13511 bound_to 8937
  110.0829  245.7262  320.3490 LP  0  0  0  0  0  0  0  0  0  0  0  0  # atno 13514 bound_to 5543
  110.3657  246.0008  318.6625 LP  0  0  0  0  0  0  0  0  0  0  0  0  # atno 13515 bound_to 5543
  111.0800  251.7028  329.7126 LP  0  0  0  0  0  0  0  0  0  0  0  0  # atno 13516 bound_to 12863
  112.2112  251.6656  328.5355 LP  0  0  0  0  0  0  0  0  0  0  0  0  # atno 13517 bound_to 12863
  107.2441  242.8276  320.0170 LP  0  0  0  0  0  0  0  0  0  0  0  0  # atno 13518 bound_to 5545
  106.1599  242.9523  321.2318 LP  0  0  0  0  0  0  0  0  0  0  0  0  # atno 13519 bound_to 5545
  108.4907  243.8038  317.9853 LP  0  0  0  0  0  0  0  0  0  0  0  0  # atno 13520 bound_to 5565
  112.1668  237.4315  322.1137 LP  0  0  0  0  0  0  0  0  0  0  0  0  # atno 13523 bound_to 8319
  111.3630  238.0825  320.8501 LP  0  0  0  0  0  0  0  0  0  0  0  0  # atno 13524 bound_to 8319
  114.3327  236.7216  328.9961 LP  0  0  0  0  0  0  0  0  0  0  0  0  # atno 13525 bound_to 9180
  114.4267  238.3094  328.3104 LP  0  0  0  0  0  0  0  0  0  0  0  0  # atno 13526 bound_to 9180
  106.8454  243.5524  317.9562 LP  0  0  0  0  0  0  0  0  0  0  0  0  # atno 13529 bound_to 5540
  110.0215  248.2001  318.8083 LP  0  0  0  0  0  0  0  0  0  0  0  0  # atno 13530 bound_to 8500
  106.7721  246.7945  316.3427 LP  0  0  0  0  0  0  0  0  0  0  0  0  # atno 13531 bound_to 5517
  108.2148  246.0838  316.9859 LP  0  0  0  0  0  0  0  0  0  0  0  0  # atno 13532 bound_to 5517
  110.2681  245.6048  317.1717 LP  0  0  0  0  0  0  0  0  0  0  0  0  # atno 13533 bound_to 8481
  110.0973  244.8767  315.7201 LP  0  0  0  0  0  0  0  0  0  0  0  0  # atno 13534 bound_to 8481
  107.5537  251.4022  320.5479 LP  0  0  0  0  0  0  0  0  0  0  0  0  # atno 13535 bound_to 8503
  107.9223  252.7335  319.5030 LP  0  0  0  0  0  0  0  0  0  0  0  0  # atno 13536 bound_to 8503
  110.8744  251.0638  318.6335 LP  0  0  0  0  0  0  0  0  0  0  0  0  # atno 13537 bound_to 8528
  109.2668  241.2473  315.7469 LP  0  0  0  0  0  0  0  0  0  0  0  0  # atno 13538 bound_to 5568
  108.4338  242.3261  316.8158 LP  0  0  0  0  0  0  0  0  0  0  0  0  # atno 13539 bound_to 5568
  109.8804  249.3132  315.1252 LP  0  0  0  0  0  0  0  0  0  0  0  0  # atno 13540 bound_to 8479
  108.5892  249.7057  316.2109 LP  0  0  0  0  0  0  0  0  0  0  0  0  # atno 13541 bound_to 8479
  105.2205  252.9425  321.9625 LP  0  0  0  0  0  0  0  0  0  0  0  0  # atno 13545 bound_to 12894
  103.9479  253.0718  323.1303 LP  0  0  0  0  0  0  0  0  0  0  0  0  # atno 13546 bound_to 12894
  109.7741  254.8929  322.1032 LP  0  0  0  0  0  0  0  0  0  0  0  0  # atno 13547 bound_to 12822
  111.2273  255.6648  321.5622 LP  0  0  0  0  0  0  0  0  0  0  0  0  # atno 13548 bound_to 12822
  109.6585  256.8381  324.8077 LP  0  0  0  0  0  0  0  0  0  0  0  0  # atno 13549 bound_to 12852
  106.8306  254.0532  322.6438 LP  0  0  0  0  0  0  0  0  0  0  0  0  # atno 13550 bound_to 12891

> <Gold.Score>
     Fitness  S(hb_ext) S(vdw_ext)  S(hb_int)    S(int)      intcor
     31.53       3.13      21.08       0.00      -0.59      -0.76

> <Gold.Goldscore.Fitness>
31.5274

> <Gold.Goldscore.Internal.Vdw>
-0.7313

> <Gold.Goldscore.Internal.Torsion>
-0.6217

> <Gold.Goldscore.External.Vdw>
21.0804

> <Gold.Goldscore.Internal.HBond>
0.0000

> <Gold.Goldscore.External.HBond>
3.1299

> <Gold.Goldscore.Internal.Correction>
-0.7650

> <Gold.Goldscore.Hbonds>
donor molecule, donor type, donor heavy atom, donor atom, acceptor molecule, acceptor atom, score
      P1  H  5545  5550       L1    17  0.37
      P1  H  5565  5574       L1    17  0.28
      L1  H     8    22       P1  5543  0.91

> <Gold.Goldscore.Internal.Vdw.Weighted>
-0.7313

> <Gold.Goldscore.Internal.Torsion.Weighted>
-0.6217

> <Gold.Goldscore.External.Vdw.Weighted>
28.9856

> <Gold.Goldscore.Internal.HBond.Weighted>
0.0000

> <Gold.Goldscore.External.HBond.Weighted>
3.1299

> <Gold.Goldscore.Internal.Correction.Weighted>
-0.7650

> <Gold.Rescore>
     Score     S(PLP)   S(hbond)     S(cho)   S(metal)  DE(clash)   DE(tors)     intcor
     29.72     -29.19       0.91       0.00       0.00       0.00       1.10       ----

> <Gold.PLP.Fitness>
29.7246

> <Gold.PLP.PLP>
-29.1878

> <Gold.PLP.part.hbond>
-2.0000

> <Gold.PLP.part.metal>
0.0000

> <Gold.PLP.part.buried>
-1.1419

> <Gold.PLP.part.nonpolar>
-28.1256

> <Gold.PLP.part.repulsive>
0.7209

> <Gold.PLP.ligand.clash>
0.0000

> <Gold.PLP.ligand.torsion>
1.0966

> <Gold.PLP.Chemscore.Hbond>
0.9100

> <Gold.PLP.Chemscore.CHOScore>
0.0000

> <Gold.PLP.Chemscore.Metal>
0.0000

> <Gold.Chemscore.Hbonds>
donor molecule, donor type, donor heavy atom, donor atom, acceptor molecule, acceptor atom, score
      L1  H     8    22       P1  5543  0.28
      P1  H  5545  5550       L1    17  1.00

> <Gold.PLP.Chemscore.Internal.Correction>
   9.000000E+99

#       Name:                CT1002167954
#       Creating user name   hitesit
#       Creation time:       Sun Apr 16 22:52:09 2023


#       File generated by GOLD software.
#

@<TRIPOS>MOLECULE
CT1002167954|ligand_prepared|mol2|1|dock9
    29    30     1
SMALL
NO_CHARGES


@<TRIPOS>ATOM
      1 C1         112.6479 246.1306 325.2959 C.3            1 RES1               0.0000
      2 C2         114.0642 245.8508 324.7531 C.ar           1 RES1               0.0000
      3 C3         111.9842 247.0728 324.2959 C.2            1 RES1               0.0000
      4 C4         111.9634 244.7740 325.4213 C.2            1 RES1               0.0000
      5 C5         112.6340 246.8033 326.6884 C.3            1 RES1               0.0000
      6 C6         115.0249 246.8573 324.7278 C.ar           1 RES1               0.0000
      7 C7         114.4249 244.5929 324.2777 C.ar           1 RES1               0.0000
      8 N8         111.0226 246.5530 323.4803 N.am           1 RES1               0.0000
      9 O9         112.3271 248.2445 324.1973 O.2            1 RES1               0.0000
     10 N10        110.8868 244.5208 324.6123 N.am           1 RES1               0.0000
     11 O11        112.3569 243.9158 326.2017 O.2            1 RES1               0.0000
     12 C12        111.2382 247.0134 327.2539 C.3            1 RES1               0.0000
     13 C13        116.3011 246.6143 324.2474 C.ar           1 RES1               0.0000
     14 C14        115.7016 244.3521 323.7974 C.ar           1 RES1               0.0000
     15 C15        110.4044 245.3372 323.6259 C.2            1 RES1               0.0000
     16 C16        116.6404 245.3617 323.7823 C.ar           1 RES1               0.0000
     17 O17        109.4656 245.0165 322.9026 O.2            1 RES1               0.0000
     18 H18        113.2080 246.1816 327.3865 H              1 RES1               0.0000
     19 H19        113.1355 247.7762 326.6155 H              1 RES1               0.0000
     20 H20        114.7755 247.8500 325.0874 H              1 RES1               0.0000
     21 H21        113.7024 243.7839 324.2790 H              1 RES1               0.0000
     22 H22        110.7368 247.1208 322.6890 H              1 RES1               0.0000
     23 H23        110.3997 243.6424 324.7591 H              1 RES1               0.0000
     24 H24        111.2856 247.4883 328.2316 H              1 RES1               0.0000
     25 H25        110.6474 247.6484 326.5970 H              1 RES1               0.0000
     26 H26        110.7194 246.0632 327.3635 H              1 RES1               0.0000
     27 H27        117.0358 247.4126 324.2363 H              1 RES1               0.0000
     28 H28        115.9640 243.3649 323.4318 H              1 RES1               0.0000
     29 H29        117.6402 245.1715 323.4063 H              1 RES1               0.0000
@<TRIPOS>BOND
    1    1    2 1     
    2    1    3 1     
    3    1    4 1     
    4    1    5 1     
    5    2    6 ar    
    6    2    7 ar    
    7    3    8 1     
    8    3    9 2     
    9    4   10 1     
   10    4   11 2     
   11    5   12 1     
   12    5   18 1     
   13    5   19 1     
   14    6   13 ar    
   15    6   20 1     
   16    7   14 ar    
   17    7   21 1     
   18    8   15 1     
   19    8   22 1     
   20   10   15 1     
   21   10   23 1     
   22   12   24 1     
   23   12   25 1     
   24   12   26 1     
   25   13   16 ar    
   26   13   27 1     
   27   14   16 ar    
   28   14   28 1     
   29   15   17 2     
   30   16   29 1     
@<TRIPOS>SUBSTRUCTURE
      1 RES1           1
@<TRIPOS>SET
DONOR_HYDROGENS      STATIC     ATOMS    <user>   **** ""
2 22 23
ATOM$RED        STATIC     ATOMS    COLORGROUP SYSTEM
2 22 23
@<TRIPOS>COMMENT
> <Gold.Version>
2022.3.0

> <Gold.Id.Protein>
unknown|5adf_clean|pdb

> <Gold.Protein.RotatedTorsions>
[ 8428 8423 8424 8425 ] final  -22.05 input   46.96 | X-H torsion
[ 8452 8445 8446 8447 ] final   23.19 input  111.34 | X-H torsion
[ 8996 8992 8993 8994 ] final  102.97 input   44.62 | X-H torsion
[ 9030 9016 9017 9018 ] final  155.54 input   32.56 | X-H torsion
[ 9074 9062 9063 9064 ] final   81.52 input   99.28 | X-H torsion
[ 9082 9073 9072 9070 ] final  147.59 input   59.99 | X-H torsion
[ 9108 9100 9101 9102 ] final  128.98 input   89.92 | X-H torsion
[ 9186 9177 9178 9179 ] final  -10.82 input  116.56 | X-H torsion
[ 3596 3592 3593 3594 ] final -141.11 input   84.58 | X-H torsion
[ 8978 8972 8973 8974 ] final -109.66 input   29.23 | X-H torsion
[ 9134 9130 9131 9132 ] final -178.84 input  126.15 | X-H torsion
[ 4890 4885 4884 4881 ] final  -33.52 input   60.00 | X-H torsion
[ 8982 8977 8976 8973 ] final  117.30 input   60.00 | X-H torsion
[ 3570 3563 3564 3565 ] final   51.33 input  100.61 | X-H torsion
[ 3548 3542 3543 3544 ] final  -45.76 input   82.26 | X-H torsion
[ 8482 8476 8477 8478 ] final  -20.12 input   53.28 | X-H torsion
[ 8948 8937 8938 8939 ] final  111.69 input   48.32 | X-H torsion
[ 12872 12863 12862 12860 ] final  -48.06 input   60.03 | X-H torsion
[ 5550 5545 5544 5541 ] final   99.01 input   60.00 | X-H torsion
[ 5574 5565 5566 5567 ] final  112.17 input   49.17 | X-H torsion
[ 8328 8319 8318 8316 ] final  153.69 input   60.00 | X-H torsion
[ 5546 5540 5541 5542 ] final -102.88 input  103.84 | X-H torsion
[ 8508 8500 8501 8502 ] final  174.24 input   63.30 | X-H torsion
[ 8486 8481 8480 8477 ] final -108.84 input   60.02 | X-H torsion
[ 8536 8528 8529 8530 ] final  142.74 input   88.08 | X-H torsion
[ 12864 12852 12853 12854 ] final   61.03 input  106.44 | X-H torsion
[ 12900 12891 12892 12893 ] final  -37.30 input   37.87 | X-H torsion
[ 9214 9206 9207 9208 ] final  -20.81 input   89.32 | X-H torsion
[ 11050 11043 11044 11045 ] final  -87.86 input   52.80 | X-H torsion
[ 5606 5598 5599 5600 ] final  160.57 input  119.27 | X-H torsion
[ 8570 8562 8563 8564 ] final -111.37 input   68.50 | X-H torsion
[ 13460 8400 8399 8398 ] final  164.52 input   -0.00 | X-H torsion
[ 13464 8940 8939 8938 ] final   60.98 input   -0.00 | X-H torsion
[ 13467 8995 8994 8993 ] final   67.19 input    0.00 | X-H torsion
[ 13470 9019 9018 9017 ] final  168.19 input    0.00 | X-H torsion
[ 13473 9065 9064 9063 ] final   19.84 input   -0.00 | X-H torsion
[ 13478 9103 9102 9101 ] final   93.58 input   -0.00 | X-H torsion
[ 13491 8975 8974 8973 ] final -135.85 input    0.00 | X-H torsion
[ 13493 8345 8344 8343 ] final  110.38 input    0.00 | X-H torsion
[ 13501 8448 8447 8446 ] final   59.28 input    0.00 | X-H torsion
[ 13503 3502 3501 3500 ] final  163.81 input    0.00 | X-H torsion
[ 13506 8426 8425 8424 ] final  104.43 input    0.00 | X-H torsion
[ 13514 5543 5542 5541 ] final   36.92 input   -0.00 | X-H torsion
[ 13525 9180 9179 9178 ] final  157.85 input    0.00 | X-H torsion
[ 13531 5517 5516 5515 ] final -176.80 input    0.00 | X-H torsion
[ 13535 8503 8502 8501 ] final  104.12 input   -0.00 | X-H torsion
[ 13538 5568 5567 5566 ] final -139.21 input   -0.00 | X-H torsion
[ 13540 8479 8478 8477 ] final  -13.70 input   -0.00 | X-H torsion
[ 13545 12894 12893 12892 ] final -172.67 input    0.00 | X-H torsion
[ 13547 12822 12821 12820 ] final -167.11 input   -0.00 | X-H torsion

> <Gold.Protein.ActiveResidues>
 TRP311  MET341  HIS342  TRP414  ALA417  ARG419  CYS420  VAL421  GLY422  LEU460 
 SER462  ASN481  SER482  GLN483  LEU484  ARG486  ALA502  ASN503  TRP566  TYR567 
 GLY568  LEU569  PRO570  ALA571  VAL572  SER573  ASN574  MET575  LEU576  PHE589 
 SER590  GLY591  TRP592  TYR593  MET594  GLY595  GLU597  ILE598  ARG601  ASP602 
 ARG608  ILE653  VAL654  TRP683  PHE709  GLU710  TYR711  GLN712  ASP714  HEM750 
 H4B760 

> <Gold.Protein.RotatedAtoms>
  120.4825  251.0408  330.0636 H   0  0  0  0  0  0  0  0  0  0  0  0  # atno 3548 bound_to 3542
  122.3030  247.9304  328.5677 H   0  0  0  0  0  0  0  0  0  0  0  0  # atno 3570 bound_to 3563
  124.5687  247.1634  328.3298 H   0  0  0  0  0  0  0  0  0  0  0  0  # atno 3596 bound_to 3592
  124.7235  245.4056  318.2766 H   0  0  0  0  0  0  0  0  0  0  0  0  # atno 4890 bound_to 4885
  106.2918  245.0529  317.5439 H   0  0  0  0  0  0  0  0  0  0  0  0  # atno 5546 bound_to 5540
  107.8818  242.9827  321.3697 H   0  0  0  0  0  0  0  0  0  0  0  0  # atno 5550 bound_to 5545
  108.8766  243.0164  319.4004 H   0  0  0  0  0  0  0  0  0  0  0  0  # atno 5574 bound_to 5565
  111.8446  243.5086  315.9783 H   0  0  0  0  0  0  0  0  0  0  0  0  # atno 5606 bound_to 5598
  112.9428  238.4716  321.5836 H   0  0  0  0  0  0  0  0  0  0  0  0  # atno 8328 bound_to 8319
  115.3475  242.4735  319.2079 H   0  0  0  0  0  0  0  0  0  0  0  0  # atno 8428 bound_to 8423
  115.1836  245.7190  317.9379 H   0  0  0  0  0  0  0  0  0  0  0  0  # atno 8452 bound_to 8445
  111.5800  247.4803  318.7551 H   0  0  0  0  0  0  0  0  0  0  0  0  # atno 8482 bound_to 8476
  110.4972  244.8849  316.2585 H   0  0  0  0  0  0  0  0  0  0  0  0  # atno 8486 bound_to 8481
  109.6780  248.0637  317.8399 H   0  0  0  0  0  0  0  0  0  0  0  0  # atno 8508 bound_to 8500
  110.6977  250.6281  319.5717 H   0  0  0  0  0  0  0  0  0  0  0  0  # atno 8536 bound_to 8528
  110.6586  254.2041  319.0090 H   0  0  0  0  0  0  0  0  0  0  0  0  # atno 8570 bound_to 8562
  115.5776  249.2502  316.1905 H   0  0  0  0  0  0  0  0  0  0  0  0  # atno 8948 bound_to 8937
  118.4437  247.2306  317.1305 H   0  0  0  0  0  0  0  0  0  0  0  0  # atno 8978 bound_to 8972
  120.5314  243.4049  315.0111 H   0  0  0  0  0  0  0  0  0  0  0  0  # atno 8982 bound_to 8977
  120.3928  244.7373  319.2298 H   0  0  0  0  0  0  0  0  0  0  0  0  # atno 8996 bound_to 8992
  123.4780  242.5909  319.7096 H   0  0  0  0  0  0  0  0  0  0  0  0  # atno 9030 bound_to 9016
  122.4961  238.6961  322.1273 H   0  0  0  0  0  0  0  0  0  0  0  0  # atno 9074 bound_to 9062
  115.1544  238.0852  321.4440 H   0  0  0  0  0  0  0  0  0  0  0  0  # atno 9082 bound_to 9073
  121.6641  240.6779  326.0511 H   0  0  0  0  0  0  0  0  0  0  0  0  # atno 9108 bound_to 9100
  123.1525  237.0957  327.8193 H   0  0  0  0  0  0  0  0  0  0  0  0  # atno 9134 bound_to 9130
  118.2106  236.9840  329.8793 H   0  0  0  0  0  0  0  0  0  0  0  0  # atno 9186 bound_to 9177
  116.7205  236.5400  329.1197 H   0  0  0  0  0  0  0  0  0  0  0  0  # atno 9214 bound_to 9206
  126.2278  236.5976  325.2921 H   0  0  0  0  0  0  0  0  0  0  0  0  # atno 11050 bound_to 11043
  109.6374  256.8667  324.7811 H   0  0  0  0  0  0  0  0  0  0  0  0  # atno 12864 bound_to 12852
  110.8158  250.6076  328.8749 H   0  0  0  0  0  0  0  0  0  0  0  0  # atno 12872 bound_to 12863
  106.5271  254.5596  323.5234 H   0  0  0  0  0  0  0  0  0  0  0  0  # atno 12900 bound_to 12891
  117.9885  243.6242  318.0906 LP  0  0  0  0  0  0  0  0  0  0  0  0  # atno 13460 bound_to 8400
  118.7529  242.7306  319.3623 LP  0  0  0  0  0  0  0  0  0  0  0  0  # atno 13461 bound_to 8400
  116.3412  241.6871  318.0062 LP  0  0  0  0  0  0  0  0  0  0  0  0  # atno 13462 bound_to 8423
  114.8463  244.5183  319.1631 LP  0  0  0  0  0  0  0  0  0  0  0  0  # atno 13463 bound_to 8445
  116.0993  246.2065  316.8159 LP  0  0  0  0  0  0  0  0  0  0  0  0  # atno 13464 bound_to 8940
  117.0049  246.3391  318.2864 LP  0  0  0  0  0  0  0  0  0  0  0  0  # atno 13465 bound_to 8940
  120.8387  244.2193  317.6191 LP  0  0  0  0  0  0  0  0  0  0  0  0  # atno 13466 bound_to 8992
  123.1513  241.8875  317.5302 LP  0  0  0  0  0  0  0  0  0  0  0  0  # atno 13467 bound_to 8995
  121.7171  241.2354  318.2499 LP  0  0  0  0  0  0  0  0  0  0  0  0  # atno 13468 bound_to 8995
  122.2866  242.8789  320.9526 LP  0  0  0  0  0  0  0  0  0  0  0  0  # atno 13469 bound_to 9016
  121.8415  241.6334  323.8043 LP  0  0  0  0  0  0  0  0  0  0  0  0  # atno 13470 bound_to 9019
  122.7211  242.5496  322.6266 LP  0  0  0  0  0  0  0  0  0  0  0  0  # atno 13471 bound_to 9019
  122.0565  240.3869  322.2093 LP  0  0  0  0  0  0  0  0  0  0  0  0  # atno 13472 bound_to 9062
  123.9541  238.6962  324.0162 LP  0  0  0  0  0  0  0  0  0  0  0  0  # atno 13473 bound_to 9065
  124.0785  238.4903  325.7315 LP  0  0  0  0  0  0  0  0  0  0  0  0  # atno 13474 bound_to 9065
  114.7856  238.8632  322.8250 LP  0  0  0  0  0  0  0  0  0  0  0  0  # atno 13475 bound_to 9073
  114.7744  237.2310  322.7760 LP  0  0  0  0  0  0  0  0  0  0  0  0  # atno 13476 bound_to 9073
  121.8311  239.0316  325.4841 LP  0  0  0  0  0  0  0  0  0  0  0  0  # atno 13477 bound_to 9100
  120.0465  237.7457  326.9401 LP  0  0  0  0  0  0  0  0  0  0  0  0  # atno 13478 bound_to 9103
  119.8630  238.5216  328.4777 LP  0  0  0  0  0  0  0  0  0  0  0  0  # atno 13479 bound_to 9103
  118.9639  238.5551  329.8053 LP  0  0  0  0  0  0  0  0  0  0  0  0  # atno 13480 bound_to 9177
  124.0665  248.5586  327.4084 LP  0  0  0  0  0  0  0  0  0  0  0  0  # atno 13489 bound_to 3592
  119.4297  246.8989  315.7276 LP  0  0  0  0  0  0  0  0  0  0  0  0  # atno 13490 bound_to 8972
  122.5580  245.5553  316.7917 LP  0  0  0  0  0  0  0  0  0  0  0  0  # atno 13491 bound_to 8975
  121.4779  246.9073  316.8658 LP  0  0  0  0  0  0  0  0  0  0  0  0  # atno 13492 bound_to 8975
  121.0665  237.3566  318.4366 LP  0  0  0  0  0  0  0  0  0  0  0  0  # atno 13493 bound_to 8345
  120.2600  236.8702  319.8901 LP  0  0  0  0  0  0  0  0  0  0  0  0  # atno 13494 bound_to 8345
  121.9682  237.9059  328.8188 LP  0  0  0  0  0  0  0  0  0  0  0  0  # atno 13495 bound_to 9130
  125.3010  246.7317  319.0229 LP  0  0  0  0  0  0  0  0  0  0  0  0  # atno 13496 bound_to 4885
  126.3155  245.7387  318.2159 LP  0  0  0  0  0  0  0  0  0  0  0  0  # atno 13497 bound_to 4885
  120.6427  245.0203  315.1699 LP  0  0  0  0  0  0  0  0  0  0  0  0  # atno 13498 bound_to 8977
  119.5282  244.3702  314.1689 LP  0  0  0  0  0  0  0  0  0  0  0  0  # atno 13499 bound_to 8977
  122.3259  249.3246  329.6247 LP  0  0  0  0  0  0  0  0  0  0  0  0  # atno 13500 bound_to 3563
  114.6114  247.4468  317.0117 LP  0  0  0  0  0  0  0  0  0  0  0  0  # atno 13501 bound_to 8448
  113.7133  248.8400  317.5141 LP  0  0  0  0  0  0  0  0  0  0  0  0  # atno 13502 bound_to 8448
  119.7234  248.8468  329.7599 LP  0  0  0  0  0  0  0  0  0  0  0  0  # atno 13503 bound_to 3502
  118.8737  249.4195  331.1563 LP  0  0  0  0  0  0  0  0  0  0  0  0  # atno 13504 bound_to 3502
  120.0546  251.8464  328.5740 LP  0  0  0  0  0  0  0  0  0  0  0  0  # atno 13505 bound_to 3542
  112.6461  243.7431  317.7312 LP  0  0  0  0  0  0  0  0  0  0  0  0  # atno 13506 bound_to 8426
  113.2203  244.5517  316.3112 LP  0  0  0  0  0  0  0  0  0  0  0  0  # atno 13507 bound_to 8426
  112.2541  246.2405  317.7281 LP  0  0  0  0  0  0  0  0  0  0  0  0  # atno 13510 bound_to 8476
  115.7009  247.9576  315.0216 LP  0  0  0  0  0  0  0  0  0  0  0  0  # atno 13511 bound_to 8937
  109.7737  246.1181  320.2001 LP  0  0  0  0  0  0  0  0  0  0  0  0  # atno 13514 bound_to 5543
  110.6749  245.6089  318.8114 LP  0  0  0  0  0  0  0  0  0  0  0  0  # atno 13515 bound_to 5543
  111.3777  251.9294  329.6401 LP  0  0  0  0  0  0  0  0  0  0  0  0  # atno 13516 bound_to 12863
  112.1389  251.3677  328.3092 LP  0  0  0  0  0  0  0  0  0  0  0  0  # atno 13517 bound_to 12863
  107.0198  242.8238  319.9987 LP  0  0  0  0  0  0  0  0  0  0  0  0  # atno 13518 bound_to 5545
  106.2559  242.9752  321.4341 LP  0  0  0  0  0  0  0  0  0  0  0  0  # atno 13519 bound_to 5545
  108.6900  244.2547  318.1788 LP  0  0  0  0  0  0  0  0  0  0  0  0  # atno 13520 bound_to 5565
  111.8267  237.3471  321.9558 LP  0  0  0  0  0  0  0  0  0  0  0  0  # atno 13523 bound_to 8319
  111.5763  238.3678  320.7059 LP  0  0  0  0  0  0  0  0  0  0  0  0  # atno 13524 bound_to 8319
  114.2901  236.8840  328.0674 LP  0  0  0  0  0  0  0  0  0  0  0  0  # atno 13525 bound_to 9180
  114.4693  238.1470  329.2391 LP  0  0  0  0  0  0  0  0  0  0  0  0  # atno 13526 bound_to 9180
  106.4286  243.4985  318.3264 LP  0  0  0  0  0  0  0  0  0  0  0  0  # atno 13529 bound_to 5540
  110.7267  249.3355  318.4060 LP  0  0  0  0  0  0  0  0  0  0  0  0  # atno 13530 bound_to 8500
  107.8139  246.4733  317.4681 LP  0  0  0  0  0  0  0  0  0  0  0  0  # atno 13531 bound_to 5517
  107.1730  246.4050  315.8604 LP  0  0  0  0  0  0  0  0  0  0  0  0  # atno 13532 bound_to 5517
  109.1532  245.5984  315.6806 LP  0  0  0  0  0  0  0  0  0  0  0  0  # atno 13533 bound_to 8481
  109.7340  246.0131  317.1494 LP  0  0  0  0  0  0  0  0  0  0  0  0  # atno 13534 bound_to 8481
  108.0003  251.7890  320.8023 LP  0  0  0  0  0  0  0  0  0  0  0  0  # atno 13535 bound_to 8503
  107.4757  252.3468  319.2487 LP  0  0  0  0  0  0  0  0  0  0  0  0  # atno 13536 bound_to 8503
  109.5573  251.4881  318.5707 LP  0  0  0  0  0  0  0  0  0  0  0  0  # atno 13537 bound_to 8528
  109.2802  241.1514  315.8794 LP  0  0  0  0  0  0  0  0  0  0  0  0  # atno 13538 bound_to 5568
  108.4204  242.4220  316.6834 LP  0  0  0  0  0  0  0  0  0  0  0  0  # atno 13539 bound_to 5568
  109.8517  249.2609  315.1132 LP  0  0  0  0  0  0  0  0  0  0  0  0  # atno 13540 bound_to 8479
  108.6180  249.7580  316.2228 LP  0  0  0  0  0  0  0  0  0  0  0  0  # atno 13541 bound_to 8479
  103.7433  252.8478  322.4140 LP  0  0  0  0  0  0  0  0  0  0  0  0  # atno 13545 bound_to 12894
  105.4251  253.1665  322.6788 LP  0  0  0  0  0  0  0  0  0  0  0  0  # atno 13546 bound_to 12894
  109.7186  254.9802  322.0545 LP  0  0  0  0  0  0  0  0  0  0  0  0  # atno 13547 bound_to 12822
  111.2828  255.5775  321.6109 LP  0  0  0  0  0  0  0  0  0  0  0  0  # atno 13548 bound_to 12822
  110.6334  255.6691  323.9905 LP  0  0  0  0  0  0  0  0  0  0  0  0  # atno 13549 bound_to 12852
  107.5961  255.1278  322.2626 LP  0  0  0  0  0  0  0  0  0  0  0  0  # atno 13550 bound_to 12891

> <Gold.Score>
     Fitness  S(hb_ext) S(vdw_ext)  S(hb_int)    S(int)      intcor
     28.19       2.01      20.47       0.00      -1.97      -0.76

> <Gold.Goldscore.Fitness>
28.1915

> <Gold.Goldscore.Internal.Vdw>
-2.3552

> <Gold.Goldscore.Internal.Torsion>
-0.3797

> <Gold.Goldscore.External.Vdw>
20.4702

> <Gold.Goldscore.Internal.HBond>
0.0000

> <Gold.Goldscore.External.HBond>
2.0149

> <Gold.Goldscore.Internal.Correction>
-0.7650

> <Gold.Goldscore.Hbonds>
donor molecule, donor type, donor heavy atom, donor atom, acceptor molecule, acceptor atom, score
      L1  H     8    22       P1  8507  0.34

> <Gold.Goldscore.Internal.Vdw.Weighted>
-2.3552

> <Gold.Goldscore.Internal.Torsion.Weighted>
-0.3797

> <Gold.Goldscore.External.Vdw.Weighted>
28.1465

> <Gold.Goldscore.Internal.HBond.Weighted>
0.0000

> <Gold.Goldscore.External.HBond.Weighted>
2.0149

> <Gold.Goldscore.Internal.Correction.Weighted>
-0.7650

> <Gold.Rescore>
     Score     S(PLP)   S(hbond)     S(cho)   S(metal)  DE(clash)   DE(tors)     intcor
     36.80     -38.67       0.00       0.00       0.00       0.97       0.45       ----

> <Gold.PLP.Fitness>
36.8043

> <Gold.PLP.PLP>
-38.6681

> <Gold.PLP.part.hbond>
-1.0000

> <Gold.PLP.part.metal>
0.0000

> <Gold.PLP.part.buried>
-3.4715

> <Gold.PLP.part.nonpolar>
-35.0894

> <Gold.PLP.part.repulsive>
0.9456

> <Gold.PLP.ligand.clash>
0.9731

> <Gold.PLP.ligand.torsion>
0.4454

> <Gold.PLP.Chemscore.Hbond>
0.0000

> <Gold.PLP.Chemscore.CHOScore>
0.0000

> <Gold.PLP.Chemscore.Metal>
0.0000

> <Gold.PLP.Chemscore.Internal.Correction>
   9.000000E+99

#       Name:                CT1002167954
#       Creating user name   hitesit
#       Creation time:       Sun Apr 16 22:52:10 2023


#       File generated by GOLD software.
#

@<TRIPOS>MOLECULE
CT1002167954|ligand_prepared|mol2|1|dock10
    29    30     1
SMALL
NO_CHARGES


@<TRIPOS>ATOM
      1 C1         110.2969 242.4554 327.6311 C.3            1 RES1               0.0000
      2 C2         111.5082 241.6086 327.1902 C.ar           1 RES1               0.0000
      3 C3         110.5792 242.8927 329.0655 C.2            1 RES1               0.0000
      4 C4         110.1974 243.6076 326.6375 C.2            1 RES1               0.0000
      5 C5         108.9552 241.6866 327.6071 C.3            1 RES1               0.0000
      6 C6         112.7106 241.6749 327.8877 C.ar           1 RES1               0.0000
      7 C7         111.4378 240.7562 326.0916 C.ar           1 RES1               0.0000
      8 N8         110.9262 244.1953 329.2721 N.am           1 RES1               0.0000
      9 O9         110.5366 242.0975 329.9961 O.2            1 RES1               0.0000
     10 N10        110.4169 244.8776 327.1030 N.am           1 RES1               0.0000
     11 O11        109.9474 243.4256 325.4524 O.2            1 RES1               0.0000
     12 C12        107.8203 242.4118 328.3129 C.3            1 RES1               0.0000
     13 C13        113.8023 240.9143 327.5027 C.ar           1 RES1               0.0000
     14 C14        112.5308 239.9966 325.7081 C.ar           1 RES1               0.0000
     15 C15        110.8070 245.2208 328.3689 C.2            1 RES1               0.0000
     16 C16        113.7130 240.0744 326.4131 C.ar           1 RES1               0.0000
     17 O17        111.0381 246.3808 328.6976 O.2            1 RES1               0.0000
     18 H18        108.6672 241.5116 326.5631 H              1 RES1               0.0000
     19 H19        109.0998 240.7090 328.0834 H              1 RES1               0.0000
     20 H20        112.8005 242.3320 328.7463 H              1 RES1               0.0000
     21 H21        110.5182 240.6796 325.5214 H              1 RES1               0.0000
     22 H22        111.3099 244.4285 330.1824 H              1 RES1               0.0000
     23 H23        110.2763 245.6375 326.4450 H              1 RES1               0.0000
     24 H24        106.9025 241.8294 328.2666 H              1 RES1               0.0000
     25 H25        108.0624 242.5801 329.3602 H              1 RES1               0.0000
     26 H26        107.6324 243.3779 327.8490 H              1 RES1               0.0000
     27 H27        114.7309 240.9802 328.0600 H              1 RES1               0.0000
     28 H28        112.4562 239.3374 324.8496 H              1 RES1               0.0000
     29 H29        114.5682 239.4785 326.1119 H              1 RES1               0.0000
@<TRIPOS>BOND
    1    1    2 1     
    2    1    3 1     
    3    1    4 1     
    4    1    5 1     
    5    2    6 ar    
    6    2    7 ar    
    7    3    8 1     
    8    3    9 2     
    9    4   10 1     
   10    4   11 2     
   11    5   12 1     
   12    5   18 1     
   13    5   19 1     
   14    6   13 ar    
   15    6   20 1     
   16    7   14 ar    
   17    7   21 1     
   18    8   15 1     
   19    8   22 1     
   20   10   15 1     
   21   10   23 1     
   22   12   24 1     
   23   12   25 1     
   24   12   26 1     
   25   13   16 ar    
   26   13   27 1     
   27   14   16 ar    
   28   14   28 1     
   29   15   17 2     
   30   16   29 1     
@<TRIPOS>SUBSTRUCTURE
      1 RES1           1
@<TRIPOS>SET
DONOR_HYDROGENS      STATIC     ATOMS    <user>   **** ""
2 22 23
ATOM$RED        STATIC     ATOMS    COLORGROUP SYSTEM
2 22 23
@<TRIPOS>COMMENT
> <Gold.Version>
2022.3.0

> <Gold.Id.Protein>
unknown|5adf_clean|pdb

> <Gold.Protein.RotatedTorsions>
[ 8428 8423 8424 8425 ] final  -10.68 input   46.96 | X-H torsion
[ 8452 8445 8446 8447 ] final  -84.14 input  111.34 | X-H torsion
[ 8996 8992 8993 8994 ] final    5.21 input   44.62 | X-H torsion
[ 9030 9016 9017 9018 ] final -148.67 input   32.56 | X-H torsion
[ 9074 9062 9063 9064 ] final   27.89 input   99.28 | X-H torsion
[ 9082 9073 9072 9070 ] final  -96.09 input   59.99 | X-H torsion
[ 9108 9100 9101 9102 ] final  -22.35 input   89.92 | X-H torsion
[ 9186 9177 9178 9179 ] final  -26.70 input  116.56 | X-H torsion
[ 3596 3592 3593 3594 ] final   79.75 input   84.58 | X-H torsion
[ 8978 8972 8973 8974 ] final   15.89 input   29.23 | X-H torsion
[ 9134 9130 9131 9132 ] final  140.33 input  126.15 | X-H torsion
[ 4890 4885 4884 4881 ] final  131.85 input   60.00 | X-H torsion
[ 8982 8977 8976 8973 ] final   51.54 input   60.00 | X-H torsion
[ 3570 3563 3564 3565 ] final -123.20 input  100.61 | X-H torsion
[ 3548 3542 3543 3544 ] final -130.07 input   82.26 | X-H torsion
[ 8482 8476 8477 8478 ] final -133.72 input   53.28 | X-H torsion
[ 8948 8937 8938 8939 ] final  -58.46 input   48.32 | X-H torsion
[ 12872 12863 12862 12860 ] final -169.23 input   60.03 | X-H torsion
[ 5550 5545 5544 5541 ] final  124.84 input   60.00 | X-H torsion
[ 5574 5565 5566 5567 ] final    5.75 input   49.17 | X-H torsion
[ 8328 8319 8318 8316 ] final  157.99 input   60.00 | X-H torsion
[ 5546 5540 5541 5542 ] final -156.17 input  103.84 | X-H torsion
[ 8508 8500 8501 8502 ] final  111.33 input   63.30 | X-H torsion
[ 8486 8481 8480 8477 ] final   30.51 input   60.02 | X-H torsion
[ 8536 8528 8529 8530 ] final   61.33 input   88.08 | X-H torsion
[ 12864 12852 12853 12854 ] final  -32.86 input  106.44 | X-H torsion
[ 12900 12891 12892 12893 ] final -140.50 input   37.87 | X-H torsion
[ 9214 9206 9207 9208 ] final  174.96 input   89.32 | X-H torsion
[ 11050 11043 11044 11045 ] final   -3.57 input   52.80 | X-H torsion
[ 5606 5598 5599 5600 ] final    9.68 input  119.27 | X-H torsion
[ 8570 8562 8563 8564 ] final  -87.72 input   68.50 | X-H torsion
[ 13460 8400 8399 8398 ] final  107.95 input   -0.00 | X-H torsion
[ 13464 8940 8939 8938 ] final  130.63 input   -0.00 | X-H torsion
[ 13467 8995 8994 8993 ] final  143.41 input    0.00 | X-H torsion
[ 13470 9019 9018 9017 ] final -102.95 input    0.00 | X-H torsion
[ 13473 9065 9064 9063 ] final  -68.58 input   -0.00 | X-H torsion
[ 13478 9103 9102 9101 ] final -102.83 input   -0.00 | X-H torsion
[ 13491 8975 8974 8973 ] final -171.72 input    0.00 | X-H torsion
[ 13493 8345 8344 8343 ] final  -40.86 input    0.00 | X-H torsion
[ 13501 8448 8447 8446 ] final -105.71 input    0.00 | X-H torsion
[ 13503 3502 3501 3500 ] final  -59.17 input    0.00 | X-H torsion
[ 13506 8426 8425 8424 ] final  -39.55 input    0.00 | X-H torsion
[ 13514 5543 5542 5541 ] final  127.85 input   -0.00 | X-H torsion
[ 13525 9180 9179 9178 ] final   77.12 input    0.00 | X-H torsion
[ 13531 5517 5516 5515 ] final  -95.76 input    0.00 | X-H torsion
[ 13535 8503 8502 8501 ] final  -24.44 input   -0.00 | X-H torsion
[ 13538 5568 5567 5566 ] final -142.09 input   -0.00 | X-H torsion
[ 13540 8479 8478 8477 ] final -122.53 input   -0.00 | X-H torsion
[ 13545 12894 12893 12892 ] final  130.71 input    0.00 | X-H torsion
[ 13547 12822 12821 12820 ] final -159.38 input   -0.00 | X-H torsion

> <Gold.Protein.ActiveResidues>
 TRP311  MET341  HIS342  TRP414  ALA417  ARG419  CYS420  VAL421  GLY422  LEU460 
 SER462  ASN481  SER482  GLN483  LEU484  ARG486  ALA502  ASN503  TRP566  TYR567 
 GLY568  LEU569  PRO570  ALA571  VAL572  SER573  ASN574  MET575  LEU576  PHE589 
 SER590  GLY591  TRP592  TYR593  MET594  GLY595  GLU597  ILE598  ARG601  ASP602 
 ARG608  ILE653  VAL654  TRP683  PHE709  GLU710  TYR711  GLN712  ASP714  HEM750 
 H4B760 

> <Gold.Protein.RotatedAtoms>
  119.5459  250.9398  329.3462 H   0  0  0  0  0  0  0  0  0  0  0  0  # atno 3548 bound_to 3542
  122.3841  249.3813  329.5869 H   0  0  0  0  0  0  0  0  0  0  0  0  # atno 3570 bound_to 3563
  123.6998  248.0897  327.2768 H   0  0  0  0  0  0  0  0  0  0  0  0  # atno 3596 bound_to 3592
  126.2897  246.3497  318.6054 H   0  0  0  0  0  0  0  0  0  0  0  0  # atno 4890 bound_to 4885
  105.7454  244.8806  318.0873 H   0  0  0  0  0  0  0  0  0  0  0  0  # atno 5546 bound_to 5540
  107.6083  243.0151  321.6848 H   0  0  0  0  0  0  0  0  0  0  0  0  # atno 5550 bound_to 5545
  108.4010  243.2521  318.0810 H   0  0  0  0  0  0  0  0  0  0  0  0  # atno 5574 bound_to 5565
  111.4134  241.9873  316.6267 H   0  0  0  0  0  0  0  0  0  0  0  0  # atno 5606 bound_to 5598
  112.9297  238.5143  321.5295 H   0  0  0  0  0  0  0  0  0  0  0  0  # atno 8328 bound_to 8319
  115.2151  242.3966  319.1235 H   0  0  0  0  0  0  0  0  0  0  0  0  # atno 8428 bound_to 8423
  114.4357  244.5352  318.2120 H   0  0  0  0  0  0  0  0  0  0  0  0  # atno 8452 bound_to 8445
  112.7424  247.0239  317.9757 H   0  0  0  0  0  0  0  0  0  0  0  0  # atno 8482 bound_to 8476
  109.4834  246.1195  316.9891 H   0  0  0  0  0  0  0  0  0  0  0  0  # atno 8486 bound_to 8481
  109.9493  248.1053  318.7106 H   0  0  0  0  0  0  0  0  0  0  0  0  # atno 8508 bound_to 8500
  110.8239  251.1099  318.5419 H   0  0  0  0  0  0  0  0  0  0  0  0  # atno 8536 bound_to 8528
  111.0131  254.2268  319.0831 H   0  0  0  0  0  0  0  0  0  0  0  0  # atno 8570 bound_to 8562
  115.6731  247.8522  315.1263 H   0  0  0  0  0  0  0  0  0  0  0  0  # atno 8948 bound_to 8937
  119.8019  247.2416  316.3463 H   0  0  0  0  0  0  0  0  0  0  0  0  # atno 8978 bound_to 8972
  120.9383  244.2504  315.4010 H   0  0  0  0  0  0  0  0  0  0  0  0  # atno 8982 bound_to 8977
  120.4396  243.6101  318.5102 H   0  0  0  0  0  0  0  0  0  0  0  0  # atno 8996 bound_to 8992
  122.6830  242.5536  319.4974 H   0  0  0  0  0  0  0  0  0  0  0  0  # atno 9030 bound_to 9016
  123.0226  239.1896  322.4731 H   0  0  0  0  0  0  0  0  0  0  0  0  # atno 9074 bound_to 9062
  114.7918  237.2097  322.7221 H   0  0  0  0  0  0  0  0  0  0  0  0  # atno 9082 bound_to 9073
  121.4377  239.0170  325.6672 H   0  0  0  0  0  0  0  0  0  0  0  0  # atno 9108 bound_to 9100
  123.3383  237.1053  328.4090 H   0  0  0  0  0  0  0  0  0  0  0  0  # atno 9134 bound_to 9130
  118.1313  237.0692  330.0917 H   0  0  0  0  0  0  0  0  0  0  0  0  # atno 9186 bound_to 9177
  116.9706  236.9342  327.4163 H   0  0  0  0  0  0  0  0  0  0  0  0  # atno 9214 bound_to 9206
  125.2900  237.0514  325.8475 H   0  0  0  0  0  0  0  0  0  0  0  0  # atno 11050 bound_to 11043
  110.0069  256.5952  323.5753 H   0  0  0  0  0  0  0  0  0  0  0  0  # atno 12864 bound_to 12852
  111.3923  251.9356  329.6271 H   0  0  0  0  0  0  0  0  0  0  0  0  # atno 12872 bound_to 12863
  107.2927  255.6574  323.1606 H   0  0  0  0  0  0  0  0  0  0  0  0  # atno 12900 bound_to 12891
  118.4370  242.9672  317.8890 LP  0  0  0  0  0  0  0  0  0  0  0  0  # atno 13460 bound_to 8400
  118.3044  243.3876  319.5640 LP  0  0  0  0  0  0  0  0  0  0  0  0  # atno 13461 bound_to 8400
  116.4709  241.7624  318.0889 LP  0  0  0  0  0  0  0  0  0  0  0  0  # atno 13462 bound_to 8423
  115.5749  245.6713  318.8962 LP  0  0  0  0  0  0  0  0  0  0  0  0  # atno 13463 bound_to 8445
  116.7523  245.5377  317.1394 LP  0  0  0  0  0  0  0  0  0  0  0  0  # atno 13464 bound_to 8940
  116.3519  247.0079  317.9628 LP  0  0  0  0  0  0  0  0  0  0  0  0  # atno 13465 bound_to 8940
  120.7933  245.3127  318.3171 LP  0  0  0  0  0  0  0  0  0  0  0  0  # atno 13466 bound_to 8992
  123.0695  241.0702  318.2143 LP  0  0  0  0  0  0  0  0  0  0  0  0  # atno 13467 bound_to 8995
  121.7990  242.0527  317.5657 LP  0  0  0  0  0  0  0  0  0  0  0  0  # atno 13468 bound_to 8995
  123.0682  242.9155  321.1612 LP  0  0  0  0  0  0  0  0  0  0  0  0  # atno 13469 bound_to 9016
  123.0167  241.8602  323.6100 LP  0  0  0  0  0  0  0  0  0  0  0  0  # atno 13470 bound_to 9019
  121.5459  242.3227  322.8209 LP  0  0  0  0  0  0  0  0  0  0  0  0  # atno 13471 bound_to 9019
  121.5448  239.9073  321.8733 LP  0  0  0  0  0  0  0  0  0  0  0  0  # atno 13472 bound_to 9062
  123.6951  237.7949  324.7772 LP  0  0  0  0  0  0  0  0  0  0  0  0  # atno 13473 bound_to 9065
  124.3375  239.3917  324.9704 LP  0  0  0  0  0  0  0  0  0  0  0  0  # atno 13474 bound_to 9065
  115.1531  238.1457  321.4408 LP  0  0  0  0  0  0  0  0  0  0  0  0  # atno 13475 bound_to 9073
  114.7718  238.8298  322.8737 LP  0  0  0  0  0  0  0  0  0  0  0  0  # atno 13476 bound_to 9073
  122.0509  240.6441  325.8569 LP  0  0  0  0  0  0  0  0  0  0  0  0  # atno 13477 bound_to 9100
  119.8518  238.2871  328.5550 LP  0  0  0  0  0  0  0  0  0  0  0  0  # atno 13478 bound_to 9103
  120.0577  237.9803  326.8628 LP  0  0  0  0  0  0  0  0  0  0  0  0  # atno 13479 bound_to 9103
  119.0422  238.4709  329.5952 LP  0  0  0  0  0  0  0  0  0  0  0  0  # atno 13480 bound_to 9177
  124.9209  247.6479  328.4437 LP  0  0  0  0  0  0  0  0  0  0  0  0  # atno 13489 bound_to 3592
  118.0981  246.8881  316.4966 LP  0  0  0  0  0  0  0  0  0  0  0  0  # atno 13490 bound_to 8972
  122.6402  245.8060  317.2553 LP  0  0  0  0  0  0  0  0  0  0  0  0  # atno 13491 bound_to 8975
  121.3957  246.6566  316.4022 LP  0  0  0  0  0  0  0  0  0  0  0  0  # atno 13492 bound_to 8975
  120.5434  236.5556  319.8149 LP  0  0  0  0  0  0  0  0  0  0  0  0  # atno 13493 bound_to 8345
  120.7831  237.6712  318.5118 LP  0  0  0  0  0  0  0  0  0  0  0  0  # atno 13494 bound_to 8345
  121.7874  237.8966  328.2452 LP  0  0  0  0  0  0  0  0  0  0  0  0  # atno 13495 bound_to 9130
  125.3522  245.1580  318.0137 LP  0  0  0  0  0  0  0  0  0  0  0  0  # atno 13496 bound_to 4885
  124.6880  246.3623  318.8943 LP  0  0  0  0  0  0  0  0  0  0  0  0  # atno 13497 bound_to 4885
  119.8725  245.0855  314.4988 LP  0  0  0  0  0  0  0  0  0  0  0  0  # atno 13498 bound_to 8977
  119.8885  243.4534  314.4472 LP  0  0  0  0  0  0  0  0  0  0  0  0  # atno 13499 bound_to 8977
  122.2473  247.9184  328.6369 LP  0  0  0  0  0  0  0  0  0  0  0  0  # atno 13500 bound_to 3563
  113.8541  248.8303  317.6909 LP  0  0  0  0  0  0  0  0  0  0  0  0  # atno 13501 bound_to 8448
  114.4707  247.4566  316.8349 LP  0  0  0  0  0  0  0  0  0  0  0  0  # atno 13502 bound_to 8448
  119.4923  249.3446  331.2753 LP  0  0  0  0  0  0  0  0  0  0  0  0  # atno 13503 bound_to 3502
  119.1048  248.9217  329.6410 LP  0  0  0  0  0  0  0  0  0  0  0  0  # atno 13504 bound_to 3502
  120.9724  251.9454  329.2770 LP  0  0  0  0  0  0  0  0  0  0  0  0  # atno 13505 bound_to 3542
  113.3442  244.0325  316.2677 LP  0  0  0  0  0  0  0  0  0  0  0  0  # atno 13506 bound_to 8426
  112.5221  244.2622  317.7748 LP  0  0  0  0  0  0  0  0  0  0  0  0  # atno 13507 bound_to 8426
  111.1100  246.6897  318.4953 LP  0  0  0  0  0  0  0  0  0  0  0  0  # atno 13510 bound_to 8476
  115.6075  249.3256  316.0629 LP  0  0  0  0  0  0  0  0  0  0  0  0  # atno 13511 bound_to 8937
  110.6284  245.2566  319.9730 LP  0  0  0  0  0  0  0  0  0  0  0  0  # atno 13514 bound_to 5543
  109.8202  246.4704  319.0385 LP  0  0  0  0  0  0  0  0  0  0  0  0  # atno 13515 bound_to 5543
  112.1321  251.3519  328.3003 LP  0  0  0  0  0  0  0  0  0  0  0  0  # atno 13516 bound_to 12863
  110.8041  250.6082  328.8918 LP  0  0  0  0  0  0  0  0  0  0  0  0  # atno 13517 bound_to 12863
  107.4339  242.8357  320.0770 LP  0  0  0  0  0  0  0  0  0  0  0  0  # atno 13518 bound_to 5545
  106.1174  242.9307  321.0384 LP  0  0  0  0  0  0  0  0  0  0  0  0  # atno 13519 bound_to 5545
  109.1515  244.0260  319.4588 LP  0  0  0  0  0  0  0  0  0  0  0  0  # atno 13520 bound_to 5565
  111.8868  237.3538  321.9923 LP  0  0  0  0  0  0  0  0  0  0  0  0  # atno 13523 bound_to 8319
  111.5293  238.3181  320.7238 LP  0  0  0  0  0  0  0  0  0  0  0  0  # atno 13524 bound_to 8319
  114.3768  237.9942  327.9315 LP  0  0  0  0  0  0  0  0  0  0  0  0  # atno 13525 bound_to 9180
  114.3827  237.0368  329.3749 LP  0  0  0  0  0  0  0  0  0  0  0  0  # atno 13526 bound_to 9180
  106.9657  243.6678  317.7923 LP  0  0  0  0  0  0  0  0  0  0  0  0  # atno 13529 bound_to 5540
  110.4575  249.2942  317.5419 LP  0  0  0  0  0  0  0  0  0  0  0  0  # atno 13530 bound_to 8500
  108.2060  245.9614  316.5458 LP  0  0  0  0  0  0  0  0  0  0  0  0  # atno 13531 bound_to 5517
  106.7809  246.9169  316.7828 LP  0  0  0  0  0  0  0  0  0  0  0  0  # atno 13532 bound_to 5517
  110.5715  244.9932  316.5458 LP  0  0  0  0  0  0  0  0  0  0  0  0  # atno 13533 bound_to 8481
  109.3361  245.3757  315.5489 LP  0  0  0  0  0  0  0  0  0  0  0  0  # atno 13534 bound_to 8481
  107.1501  251.7160  319.4958 LP  0  0  0  0  0  0  0  0  0  0  0  0  # atno 13535 bound_to 8503
  108.3259  252.4198  320.5552 LP  0  0  0  0  0  0  0  0  0  0  0  0  # atno 13536 bound_to 8503
  109.4325  251.0117  319.5889 LP  0  0  0  0  0  0  0  0  0  0  0  0  # atno 13537 bound_to 8528
  109.2781  241.1747  315.8427 LP  0  0  0  0  0  0  0  0  0  0  0  0  # atno 13538 bound_to 5568
  108.4225  242.3987  316.7201 LP  0  0  0  0  0  0  0  0  0  0  0  0  # atno 13539 bound_to 5568
  109.4443  250.2859  315.9894 LP  0  0  0  0  0  0  0  0  0  0  0  0  # atno 13540 bound_to 8479
  109.0254  248.7330  315.3466 LP  0  0  0  0  0  0  0  0  0  0  0  0  # atno 13541 bound_to 8479
  103.9815  253.0857  323.1633 LP  0  0  0  0  0  0  0  0  0  0  0  0  # atno 13545 bound_to 12894
  105.1869  252.9286  321.9295 LP  0  0  0  0  0  0  0  0  0  0  0  0  # atno 13546 bound_to 12894
  109.6760  255.0746  322.0007 LP  0  0  0  0  0  0  0  0  0  0  0  0  # atno 13547 bound_to 12822
  111.3254  255.4831  321.6646 LP  0  0  0  0  0  0  0  0  0  0  0  0  # atno 13548 bound_to 12822
  110.2717  255.9350  325.1707 LP  0  0  0  0  0  0  0  0  0  0  0  0  # atno 13549 bound_to 12852
  106.8491  254.0566  322.6165 LP  0  0  0  0  0  0  0  0  0  0  0  0  # atno 13550 bound_to 12891

> <Gold.Score>
     Fitness  S(hb_ext) S(vdw_ext)  S(hb_int)    S(int)      intcor
     28.07       5.99      17.15       0.00      -1.50      -0.76

> <Gold.Goldscore.Fitness>
28.0721

> <Gold.Goldscore.Internal.Vdw>
-1.6550

> <Gold.Goldscore.Internal.Torsion>
-0.6079

> <Gold.Goldscore.External.Vdw>
17.1457

> <Gold.Goldscore.Internal.HBond>
0.0000

> <Gold.Goldscore.External.HBond>
5.9946

> <Gold.Goldscore.Internal.Correction>
-0.7650

> <Gold.Goldscore.Hbonds>
donor molecule, donor type, donor heavy atom, donor atom, acceptor molecule, acceptor atom, score
      L1  H     8    22       P1 13418  1.00

> <Gold.Goldscore.Internal.Vdw.Weighted>
-1.6550

> <Gold.Goldscore.Internal.Torsion.Weighted>
-0.6079

> <Gold.Goldscore.External.Vdw.Weighted>
23.5753

> <Gold.Goldscore.Internal.HBond.Weighted>
0.0000

> <Gold.Goldscore.External.HBond.Weighted>
5.9946

> <Gold.Goldscore.Internal.Correction.Weighted>
-0.7650

> <Gold.Rescore>
     Score     S(PLP)   S(hbond)     S(cho)   S(metal)  DE(clash)   DE(tors)     intcor
     18.89     -21.05       0.00       0.00       0.00       0.10       1.03       ----

> <Gold.PLP.Fitness>
18.8927

> <Gold.PLP.PLP>
-21.0486

> <Gold.PLP.part.hbond>
0.0000

> <Gold.PLP.part.metal>
0.0000

> <Gold.PLP.part.buried>
-5.9514

> <Gold.PLP.part.nonpolar>
-16.3856

> <Gold.PLP.part.repulsive>
0.3545

> <Gold.PLP.ligand.clash>
0.0998

> <Gold.PLP.ligand.torsion>
1.0280

> <Gold.PLP.Chemscore.Hbond>
0.0000

> <Gold.PLP.Chemscore.CHOScore>
0.0000

> <Gold.PLP.Chemscore.Metal>
0.0000

> <Gold.Chemscore.Hbonds>
donor molecule, donor type, donor heavy atom, donor atom, acceptor molecule, acceptor atom, score
      L1  H     8    22       P1 13418  0.84

> <Gold.PLP.Chemscore.Internal.Correction>
   9.000000E+99

