#       Name:                CT1002167954
#       Creating user name   hitesit
#       Creation time:       Sun Apr 16 22:52:06 2023


#       File generated by GOLD software.
#

@<TRIPOS>MOLECULE
CT1002167954|ligand_prepared|mol2|1|dock5
    29    30     1
SMALL
NO_CHARGES


@<TRIPOS>ATOM
      1 C1         113.0031 241.4554 326.0198 C.3            1 RES1               0.0000
      2 C2         112.5057 241.6068 327.4718 C.ar           1 RES1               0.0000
      3 C3         113.4978 240.0184 325.8840 C.2            1 RES1               0.0000
      4 C4         111.8155 241.7918 325.1248 C.2            1 RES1               0.0000
      5 C5         114.1629 242.4108 325.6538 C.3            1 RES1               0.0000
      6 C6         111.1773 241.3487 327.7963 C.ar           1 RES1               0.0000
      7 C7         113.3626 242.0005 328.4963 C.ar           1 RES1               0.0000
      8 N8         112.7226 239.1476 325.1764 N.am           1 RES1               0.0000
      9 O9         114.5324 239.6451 326.4229 O.2            1 RES1               0.0000
     10 N10        111.2909 240.7902 324.3506 N.am           1 RES1               0.0000
     11 O11        111.3187 242.9110 325.0954 O.2            1 RES1               0.0000
     12 C12        114.4935 242.4333 324.1698 C.3            1 RES1               0.0000
     13 C13        110.7225 241.4766 329.0983 C.ar           1 RES1               0.0000
     14 C14        112.9056 242.1280 329.7976 C.ar           1 RES1               0.0000
     15 C15        111.6712 239.4758 324.3588 C.2            1 RES1               0.0000
     16 C16        111.5863 241.8658 330.0998 C.ar           1 RES1               0.0000
     17 O17        111.1148 238.6225 323.6737 O.2            1 RES1               0.0000
     18 H18        113.8974 243.4265 325.9719 H              1 RES1               0.0000
     19 H19        115.0585 242.1084 326.2105 H              1 RES1               0.0000
     20 H20        110.4823 241.0437 327.0211 H              1 RES1               0.0000
     21 H21        114.4044 242.2130 328.2816 H              1 RES1               0.0000
     22 H22        112.9453 238.1611 325.2631 H              1 RES1               0.0000
     23 H23        110.5482 241.0483 323.7086 H              1 RES1               0.0000
     24 H24        115.3136 243.1191 323.9677 H              1 RES1               0.0000
     25 H25        114.7864 241.4439 323.8247 H              1 RES1               0.0000
     26 H26        113.6322 242.7542 323.5875 H              1 RES1               0.0000
     27 H27        109.6829 241.2704 329.3307 H              1 RES1               0.0000
     28 H28        113.5888 242.4352 330.5825 H              1 RES1               0.0000
     29 H29        111.2298 241.9655 331.1197 H              1 RES1               0.0000
@<TRIPOS>BOND
    1    1    2 1     
    2    1    3 1     
    3    1    4 1     
    4    1    5 1     
    5    2    6 ar    
    6    2    7 ar    
    7    3    8 1     
    8    3    9 2     
    9    4   10 1     
   10    4   11 2     
   11    5   12 1     
   12    5   18 1     
   13    5   19 1     
   14    6   13 ar    
   15    6   20 1     
   16    7   14 ar    
   17    7   21 1     
   18    8   15 1     
   19    8   22 1     
   20   10   15 1     
   21   10   23 1     
   22   12   24 1     
   23   12   25 1     
   24   12   26 1     
   25   13   16 ar    
   26   13   27 1     
   27   14   16 ar    
   28   14   28 1     
   29   15   17 2     
   30   16   29 1     
@<TRIPOS>SUBSTRUCTURE
      1 RES1           1
@<TRIPOS>SET
DONOR_HYDROGENS      STATIC     ATOMS    <user>   **** ""
2 22 23
ATOM$RED        STATIC     ATOMS    COLORGROUP SYSTEM
2 22 23
@<TRIPOS>COMMENT
> <Gold.Version>
2022.3.0

> <Gold.Id.Protein>
unknown|5adf_clean|pdb

> <Gold.Protein.RotatedTorsions>
[ 8428 8423 8424 8425 ] final  131.41 input   46.96 | X-H torsion
[ 8452 8445 8446 8447 ] final  162.08 input  111.34 | X-H torsion
[ 8996 8992 8993 8994 ] final   96.73 input   44.62 | X-H torsion
[ 9030 9016 9017 9018 ] final   45.27 input   32.56 | X-H torsion
[ 9074 9062 9063 9064 ] final  -42.39 input   99.28 | X-H torsion
[ 9082 9073 9072 9070 ] final -164.98 input   59.99 | X-H torsion
[ 9108 9100 9101 9102 ] final -126.60 input   89.92 | X-H torsion
[ 9186 9177 9178 9179 ] final  134.88 input  116.56 | X-H torsion
[ 3596 3592 3593 3594 ] final   71.96 input   84.58 | X-H torsion
[ 8978 8972 8973 8974 ] final  132.15 input   29.23 | X-H torsion
[ 9134 9130 9131 9132 ] final -110.19 input  126.15 | X-H torsion
[ 4890 4885 4884 4881 ] final -135.52 input   60.00 | X-H torsion
[ 8982 8977 8976 8973 ] final  -87.25 input   60.00 | X-H torsion
[ 3570 3563 3564 3565 ] final   83.92 input  100.61 | X-H torsion
[ 3548 3542 3543 3544 ] final  100.53 input   82.26 | X-H torsion
[ 8482 8476 8477 8478 ] final  -43.80 input   53.28 | X-H torsion
[ 8948 8937 8938 8939 ] final   10.48 input   48.32 | X-H torsion
[ 12872 12863 12862 12860 ] final   62.72 input   60.03 | X-H torsion
[ 5550 5545 5544 5541 ] final   40.39 input   60.00 | X-H torsion
[ 5574 5565 5566 5567 ] final  -28.23 input   49.17 | X-H torsion
[ 8328 8319 8318 8316 ] final  104.93 input   60.00 | X-H torsion
[ 5546 5540 5541 5542 ] final -132.37 input  103.84 | X-H torsion
[ 8508 8500 8501 8502 ] final -174.32 input   63.30 | X-H torsion
[ 8486 8481 8480 8477 ] final  -84.86 input   60.02 | X-H torsion
[ 8536 8528 8529 8530 ] final -110.20 input   88.08 | X-H torsion
[ 12864 12852 12853 12854 ] final  -21.56 input  106.44 | X-H torsion
[ 12900 12891 12892 12893 ] final -119.77 input   37.87 | X-H torsion
[ 9214 9206 9207 9208 ] final -135.85 input   89.32 | X-H torsion
[ 11050 11043 11044 11045 ] final    7.66 input   52.80 | X-H torsion
[ 5606 5598 5599 5600 ] final -112.95 input  119.27 | X-H torsion
[ 8570 8562 8563 8564 ] final  124.54 input   68.50 | X-H torsion
[ 13460 8400 8399 8398 ] final    6.84 input   -0.00 | X-H torsion
[ 13464 8940 8939 8938 ] final  138.93 input   -0.00 | X-H torsion
[ 13467 8995 8994 8993 ] final -163.33 input    0.00 | X-H torsion
[ 13470 9019 9018 9017 ] final  161.44 input    0.00 | X-H torsion
[ 13473 9065 9064 9063 ] final  -74.87 input   -0.00 | X-H torsion
[ 13478 9103 9102 9101 ] final  -67.86 input   -0.00 | X-H torsion
[ 13491 8975 8974 8973 ] final  -15.81 input    0.00 | X-H torsion
[ 13493 8345 8344 8343 ] final  -93.17 input    0.00 | X-H torsion
[ 13501 8448 8447 8446 ] final  130.35 input    0.00 | X-H torsion
[ 13503 3502 3501 3500 ] final  169.68 input    0.00 | X-H torsion
[ 13506 8426 8425 8424 ] final -121.39 input    0.00 | X-H torsion
[ 13514 5543 5542 5541 ] final   69.84 input   -0.00 | X-H torsion
[ 13525 9180 9179 9178 ] final  -44.04 input    0.00 | X-H torsion
[ 13531 5517 5516 5515 ] final  -86.90 input    0.00 | X-H torsion
[ 13535 8503 8502 8501 ] final  -73.94 input   -0.00 | X-H torsion
[ 13538 5568 5567 5566 ] final   64.39 input   -0.00 | X-H torsion
[ 13540 8479 8478 8477 ] final  -96.06 input   -0.00 | X-H torsion
[ 13545 12894 12893 12892 ] final  -82.02 input    0.00 | X-H torsion
[ 13547 12822 12821 12820 ] final   62.85 input   -0.00 | X-H torsion

> <Gold.Protein.ActiveResidues>
 TRP311  MET341  HIS342  TRP414  ALA417  ARG419  CYS420  VAL421  GLY422  LEU460 
 SER462  ASN481  SER482  GLN483  LEU484  ARG486  ALA502  ASN503  TRP566  TYR567 
 GLY568  LEU569  PRO570  ALA571  VAL572  SER573  ASN574  MET575  LEU576  PHE589 
 SER590  GLY591  TRP592  TYR593  MET594  GLY595  GLU597  ILE598  ARG601  ASP602 
 ARG608  ILE653  VAL654  TRP683  PHE709  GLU710  TYR711  GLN712  ASP714  HEM750 
 H4B760 

> <Gold.Protein.RotatedAtoms>
  120.5007  252.0465  328.7072 H   0  0  0  0  0  0  0  0  0  0  0  0  # atno 3548 bound_to 3542
  122.0702  247.7923  328.9865 H   0  0  0  0  0  0  0  0  0  0  0  0  # atno 3570 bound_to 3563
  123.7489  248.1988  327.2788 H   0  0  0  0  0  0  0  0  0  0  0  0  # atno 3596 bound_to 3592
  125.0256  246.6305  319.0030 H   0  0  0  0  0  0  0  0  0  0  0  0  # atno 4890 bound_to 4885
  105.9483  245.0392  317.8314 H   0  0  0  0  0  0  0  0  0  0  0  0  # atno 5546 bound_to 5540
  107.8592  242.8827  320.4591 H   0  0  0  0  0  0  0  0  0  0  0  0  # atno 5550 bound_to 5545
  108.4806  243.7483  317.9515 H   0  0  0  0  0  0  0  0  0  0  0  0  # atno 5574 bound_to 5565
  110.6743  243.2691  316.1684 H   0  0  0  0  0  0  0  0  0  0  0  0  # atno 5606 bound_to 5598
  112.7695  237.8920  322.0650 H   0  0  0  0  0  0  0  0  0  0  0  0  # atno 8328 bound_to 8319
  115.9760  241.5660  317.8926 H   0  0  0  0  0  0  0  0  0  0  0  0  # atno 8428 bound_to 8423
  115.2359  244.9316  319.3968 H   0  0  0  0  0  0  0  0  0  0  0  0  # atno 8452 bound_to 8445
  111.9090  247.6120  318.6863 H   0  0  0  0  0  0  0  0  0  0  0  0  # atno 8482 bound_to 8476
  110.5721  245.0346  316.6098 H   0  0  0  0  0  0  0  0  0  0  0  0  # atno 8486 bound_to 8481
  109.6929  248.1439  317.6857 H   0  0  0  0  0  0  0  0  0  0  0  0  # atno 8508 bound_to 8500
  109.3587  251.0651  319.4964 H   0  0  0  0  0  0  0  0  0  0  0  0  # atno 8536 bound_to 8528
  109.9305  255.0492  320.1053 H   0  0  0  0  0  0  0  0  0  0  0  0  # atno 8570 bound_to 8562
  115.4762  247.8918  316.1055 H   0  0  0  0  0  0  0  0  0  0  0  0  # atno 8948 bound_to 8937
  118.5583  246.6857  315.7233 H   0  0  0  0  0  0  0  0  0  0  0  0  # atno 8978 bound_to 8972
  119.6974  244.8887  314.3413 H   0  0  0  0  0  0  0  0  0  0  0  0  # atno 8982 bound_to 8977
  120.3702  244.6449  319.2475 H   0  0  0  0  0  0  0  0  0  0  0  0  # atno 8996 bound_to 8992
  123.2727  242.9050  321.1044 H   0  0  0  0  0  0  0  0  0  0  0  0  # atno 9030 bound_to 9016
  122.7815  240.1797  322.5382 H   0  0  0  0  0  0  0  0  0  0  0  0  # atno 9074 bound_to 9062
  115.0697  237.3877  321.7154 H   0  0  0  0  0  0  0  0  0  0  0  0  # atno 9082 bound_to 9073
  122.5633  239.8115  325.4124 H   0  0  0  0  0  0  0  0  0  0  0  0  # atno 9108 bound_to 9100
  122.2951  237.4803  327.4779 H   0  0  0  0  0  0  0  0  0  0  0  0  # atno 9134 bound_to 9130
  119.1047  238.3090  329.3760 H   0  0  0  0  0  0  0  0  0  0  0  0  # atno 9186 bound_to 9177
  116.3744  237.1623  327.7948 H   0  0  0  0  0  0  0  0  0  0  0  0  # atno 9214 bound_to 9206
  125.2188  237.2080  325.8452 H   0  0  0  0  0  0  0  0  0  0  0  0  # atno 11050 bound_to 11043
  109.9091  256.7121  323.6587 H   0  0  0  0  0  0  0  0  0  0  0  0  # atno 12864 bound_to 12852
  112.0719  251.2458  328.2498 H   0  0  0  0  0  0  0  0  0  0  0  0  # atno 12872 bound_to 12863
  107.1011  255.5671  323.3984 H   0  0  0  0  0  0  0  0  0  0  0  0  # atno 12900 bound_to 12891
  118.8503  242.5564  319.0930 LP  0  0  0  0  0  0  0  0  0  0  0  0  # atno 13460 bound_to 8400
  117.8911  243.7984  318.3600 LP  0  0  0  0  0  0  0  0  0  0  0  0  # atno 13461 bound_to 8400
  115.7254  242.5762  319.2949 LP  0  0  0  0  0  0  0  0  0  0  0  0  # atno 13462 bound_to 8423
  114.7954  245.2852  317.7422 LP  0  0  0  0  0  0  0  0  0  0  0  0  # atno 13463 bound_to 8445
  116.8306  245.5162  317.2349 LP  0  0  0  0  0  0  0  0  0  0  0  0  # atno 13464 bound_to 8940
  116.2736  247.0294  317.8673 LP  0  0  0  0  0  0  0  0  0  0  0  0  # atno 13465 bound_to 8940
  120.8607  244.3089  317.6020 LP  0  0  0  0  0  0  0  0  0  0  0  0  # atno 13466 bound_to 8992
  122.3473  240.9021  318.4447 LP  0  0  0  0  0  0  0  0  0  0  0  0  # atno 13467 bound_to 8995
  122.5211  242.2209  317.3354 LP  0  0  0  0  0  0  0  0  0  0  0  0  # atno 13468 bound_to 8995
  122.4885  242.5701  319.5811 LP  0  0  0  0  0  0  0  0  0  0  0  0  # atno 13469 bound_to 9016
  121.7570  241.6627  323.7552 LP  0  0  0  0  0  0  0  0  0  0  0  0  # atno 13470 bound_to 9019
  122.8055  242.5203  322.6757 LP  0  0  0  0  0  0  0  0  0  0  0  0  # atno 13471 bound_to 9019
  121.7792  238.9451  321.8101 LP  0  0  0  0  0  0  0  0  0  0  0  0  # atno 13472 bound_to 9062
  123.7029  237.7860  324.8714 LP  0  0  0  0  0  0  0  0  0  0  0  0  # atno 13473 bound_to 9065
  124.3298  239.4006  324.8762 LP  0  0  0  0  0  0  0  0  0  0  0  0  # atno 13474 bound_to 9065
  114.9851  238.9665  322.1007 LP  0  0  0  0  0  0  0  0  0  0  0  0  # atno 13475 bound_to 9073
  114.6601  237.8298  323.2271 LP  0  0  0  0  0  0  0  0  0  0  0  0  # atno 13476 bound_to 9073
  120.9580  239.8728  326.1043 LP  0  0  0  0  0  0  0  0  0  0  0  0  # atno 13477 bound_to 9100
  119.8847  238.7479  328.3154 LP  0  0  0  0  0  0  0  0  0  0  0  0  # atno 13478 bound_to 9103
  120.0248  237.5194  327.1025 LP  0  0  0  0  0  0  0  0  0  0  0  0  # atno 13479 bound_to 9103
  118.0799  237.2451  330.3028 LP  0  0  0  0  0  0  0  0  0  0  0  0  # atno 13480 bound_to 9177
  124.8726  247.5407  328.4416 LP  0  0  0  0  0  0  0  0  0  0  0  0  # atno 13489 bound_to 3592
  119.3174  247.4331  317.1074 LP  0  0  0  0  0  0  0  0  0  0  0  0  # atno 13490 bound_to 8972
  121.4749  246.3887  316.1728 LP  0  0  0  0  0  0  0  0  0  0  0  0  # atno 13491 bound_to 8975
  122.5610  246.0739  317.4847 LP  0  0  0  0  0  0  0  0  0  0  0  0  # atno 13492 bound_to 8975
  120.0994  237.1767  319.8176 LP  0  0  0  0  0  0  0  0  0  0  0  0  # atno 13493 bound_to 8345
  121.2270  237.0501  318.5091 LP  0  0  0  0  0  0  0  0  0  0  0  0  # atno 13494 bound_to 8345
  122.8021  237.5318  329.1509 LP  0  0  0  0  0  0  0  0  0  0  0  0  # atno 13495 bound_to 9130
  126.3767  245.9871  318.3631 LP  0  0  0  0  0  0  0  0  0  0  0  0  # atno 13496 bound_to 4885
  124.9357  245.2506  318.1447 LP  0  0  0  0  0  0  0  0  0  0  0  0  # atno 13497 bound_to 4885
  120.1065  243.3412  314.6334 LP  0  0  0  0  0  0  0  0  0  0  0  0  # atno 13498 bound_to 8977
  120.9044  244.5547  315.3800 LP  0  0  0  0  0  0  0  0  0  0  0  0  # atno 13499 bound_to 8977
  122.5515  249.4584  329.2189 LP  0  0  0  0  0  0  0  0  0  0  0  0  # atno 13500 bound_to 3563
  113.8499  247.8663  316.5042 LP  0  0  0  0  0  0  0  0  0  0  0  0  # atno 13501 bound_to 8448
  114.4749  248.4205  318.0215 LP  0  0  0  0  0  0  0  0  0  0  0  0  # atno 13502 bound_to 8448
  119.7969  248.8486  329.8095 LP  0  0  0  0  0  0  0  0  0  0  0  0  # atno 13503 bound_to 3502
  118.8002  249.4177  331.1067 LP  0  0  0  0  0  0  0  0  0  0  0  0  # atno 13504 bound_to 3502
  120.0368  250.8609  329.9032 LP  0  0  0  0  0  0  0  0  0  0  0  0  # atno 13505 bound_to 3542
  112.9152  244.9679  316.7449 LP  0  0  0  0  0  0  0  0  0  0  0  0  # atno 13506 bound_to 8426
  112.9512  243.3268  317.2975 LP  0  0  0  0  0  0  0  0  0  0  0  0  # atno 13507 bound_to 8426
  111.9303  246.1109  317.7959 LP  0  0  0  0  0  0  0  0  0  0  0  0  # atno 13510 bound_to 8476
  115.8002  249.2868  315.1048 LP  0  0  0  0  0  0  0  0  0  0  0  0  # atno 13511 bound_to 8937
  110.0617  245.7495  320.3487 LP  0  0  0  0  0  0  0  0  0  0  0  0  # atno 13514 bound_to 5543
  110.3868  245.9775  318.6628 LP  0  0  0  0  0  0  0  0  0  0  0  0  # atno 13515 bound_to 5543
  110.7507  250.6624  328.9999 LP  0  0  0  0  0  0  0  0  0  0  0  0  # atno 13516 bound_to 12863
  111.5012  251.9922  329.5787 LP  0  0  0  0  0  0  0  0  0  0  0  0  # atno 13517 bound_to 12863
  106.2322  242.8702  320.4777 LP  0  0  0  0  0  0  0  0  0  0  0  0  # atno 13518 bound_to 5545
  107.0663  243.0296  321.8725 LP  0  0  0  0  0  0  0  0  0  0  0  0  # atno 13519 bound_to 5545
  109.0742  243.5447  319.5844 LP  0  0  0  0  0  0  0  0  0  0  0  0  # atno 13520 bound_to 5565
  111.3302  237.5445  321.3896 LP  0  0  0  0  0  0  0  0  0  0  0  0  # atno 13523 bound_to 8319
  112.2472  238.7541  320.7873 LP  0  0  0  0  0  0  0  0  0  0  0  0  # atno 13524 bound_to 8319
  114.4585  237.8821  329.4339 LP  0  0  0  0  0  0  0  0  0  0  0  0  # atno 13525 bound_to 9180
  114.3009  237.1489  327.8726 LP  0  0  0  0  0  0  0  0  0  0  0  0  # atno 13526 bound_to 9180
  106.7663  243.5119  318.0438 LP  0  0  0  0  0  0  0  0  0  0  0  0  # atno 13529 bound_to 5540
  110.7119  249.2559  318.5590 LP  0  0  0  0  0  0  0  0  0  0  0  0  # atno 13530 bound_to 8500
  108.1648  245.9502  316.4190 LP  0  0  0  0  0  0  0  0  0  0  0  0  # atno 13531 bound_to 5517
  106.8221  246.9282  316.9096 LP  0  0  0  0  0  0  0  0  0  0  0  0  # atno 13532 bound_to 5517
  109.3885  245.3234  315.5306 LP  0  0  0  0  0  0  0  0  0  0  0  0  # atno 13533 bound_to 8481
  109.4232  246.1374  316.9458 LP  0  0  0  0  0  0  0  0  0  0  0  0  # atno 13534 bound_to 8481
  107.4574  252.3239  319.2472 LP  0  0  0  0  0  0  0  0  0  0  0  0  # atno 13535 bound_to 8503
  108.0185  251.8119  320.8038 LP  0  0  0  0  0  0  0  0  0  0  0  0  # atno 13536 bound_to 8503
  110.8810  251.0560  318.6452 LP  0  0  0  0  0  0  0  0  0  0  0  0  # atno 13537 bound_to 8528
  108.4443  242.5483  316.3533 LP  0  0  0  0  0  0  0  0  0  0  0  0  # atno 13538 bound_to 5568
  109.2563  241.0251  316.2095 LP  0  0  0  0  0  0  0  0  0  0  0  0  # atno 13539 bound_to 5568
  109.7446  250.2055  315.7433 LP  0  0  0  0  0  0  0  0  0  0  0  0  # atno 13540 bound_to 8479
  108.7251  248.8134  315.5927 LP  0  0  0  0  0  0  0  0  0  0  0  0  # atno 13541 bound_to 8479
  104.7614  252.8099  321.7220 LP  0  0  0  0  0  0  0  0  0  0  0  0  # atno 13545 bound_to 12894
  104.4069  253.2044  323.3708 LP  0  0  0  0  0  0  0  0  0  0  0  0  # atno 13546 bound_to 12894
  111.2868  254.9486  321.9845 LP  0  0  0  0  0  0  0  0  0  0  0  0  # atno 13547 bound_to 12822
  109.7146  255.6091  321.6809 LP  0  0  0  0  0  0  0  0  0  0  0  0  # atno 13548 bound_to 12822
  110.3674  255.8205  325.0891 LP  0  0  0  0  0  0  0  0  0  0  0  0  # atno 13549 bound_to 12852
  107.0360  254.1447  322.3846 LP  0  0  0  0  0  0  0  0  0  0  0  0  # atno 13550 bound_to 12891

> <Gold.Score>
     Fitness  S(hb_ext) S(vdw_ext)  S(hb_int)    S(int)      intcor
     33.91       3.30      22.63       0.00      -0.52      -0.76

> <Gold.Goldscore.Fitness>
33.9060

> <Gold.Goldscore.Internal.Vdw>
-0.7610

> <Gold.Goldscore.Internal.Torsion>
-0.5195

> <Gold.Goldscore.External.Vdw>
22.6315

> <Gold.Goldscore.Internal.HBond>
0.0000

> <Gold.Goldscore.External.HBond>
3.3032

> <Gold.Goldscore.Internal.Correction>
-0.7650

> <Gold.Goldscore.Hbonds>
donor molecule, donor type, donor heavy atom, donor atom, acceptor molecule, acceptor atom, score
      P1  H  9513  9527       L1    17  0.01
      P1  H  9206  9214       L1     9  0.06
      L1  H     8    22       P1  9345  0.52

> <Gold.Goldscore.Internal.Vdw.Weighted>
-0.7610

> <Gold.Goldscore.Internal.Torsion.Weighted>
-0.5195

> <Gold.Goldscore.External.Vdw.Weighted>
31.1183

> <Gold.Goldscore.Internal.HBond.Weighted>
0.0000

> <Gold.Goldscore.External.HBond.Weighted>
3.3032

> <Gold.Goldscore.Internal.Correction.Weighted>
-0.7650

> <Gold.Rescore>
     Score     S(PLP)   S(hbond)     S(cho)   S(metal)  DE(clash)   DE(tors)     intcor
     13.18     -12.92       0.86       0.00       0.00       2.04       0.15       ----

> <Gold.PLP.Fitness>
13.1802

> <Gold.PLP.PLP>
-12.9247

> <Gold.PLP.part.hbond>
-2.9591

> <Gold.PLP.part.metal>
0.0000

> <Gold.PLP.part.buried>
6.7631

> <Gold.PLP.part.nonpolar>
-19.2068

> <Gold.PLP.part.repulsive>
2.3617

> <Gold.PLP.ligand.clash>
2.0357

> <Gold.PLP.ligand.torsion>
0.1504

> <Gold.PLP.Chemscore.Hbond>
0.8640

> <Gold.PLP.Chemscore.CHOScore>
0.0000

> <Gold.PLP.Chemscore.Metal>
0.0000

> <Gold.Chemscore.Hbonds>
donor molecule, donor type, donor heavy atom, donor atom, acceptor molecule, acceptor atom, score
      L1  H     8    22       P1  9345  0.75
      P1  H  5687  5700       L1    17  0.10
      P1  H  8319  8328       L1    17  0.02

> <Gold.PLP.Chemscore.Internal.Correction>
   9.000000E+99

