#       Name:                CT1002167954
#       Creating user name   hitesit
#       Creation time:       Sun Apr 16 22:52:09 2023


#       File generated by GOLD software.
#

@<TRIPOS>MOLECULE
CT1002167954|ligand_prepared|mol2|1|dock9
    29    30     1
SMALL
NO_CHARGES


@<TRIPOS>ATOM
      1 C1         112.6479 246.1306 325.2959 C.3            1 RES1               0.0000
      2 C2         114.0642 245.8508 324.7531 C.ar           1 RES1               0.0000
      3 C3         111.9842 247.0728 324.2959 C.2            1 RES1               0.0000
      4 C4         111.9634 244.7740 325.4213 C.2            1 RES1               0.0000
      5 C5         112.6340 246.8033 326.6884 C.3            1 RES1               0.0000
      6 C6         115.0249 246.8573 324.7278 C.ar           1 RES1               0.0000
      7 C7         114.4249 244.5929 324.2777 C.ar           1 RES1               0.0000
      8 N8         111.0226 246.5530 323.4803 N.am           1 RES1               0.0000
      9 O9         112.3271 248.2445 324.1973 O.2            1 RES1               0.0000
     10 N10        110.8868 244.5208 324.6123 N.am           1 RES1               0.0000
     11 O11        112.3569 243.9158 326.2017 O.2            1 RES1               0.0000
     12 C12        111.2382 247.0134 327.2539 C.3            1 RES1               0.0000
     13 C13        116.3011 246.6143 324.2474 C.ar           1 RES1               0.0000
     14 C14        115.7016 244.3521 323.7974 C.ar           1 RES1               0.0000
     15 C15        110.4044 245.3372 323.6259 C.2            1 RES1               0.0000
     16 C16        116.6404 245.3617 323.7823 C.ar           1 RES1               0.0000
     17 O17        109.4656 245.0165 322.9026 O.2            1 RES1               0.0000
     18 H18        113.2080 246.1816 327.3865 H              1 RES1               0.0000
     19 H19        113.1355 247.7762 326.6155 H              1 RES1               0.0000
     20 H20        114.7755 247.8500 325.0874 H              1 RES1               0.0000
     21 H21        113.7024 243.7839 324.2790 H              1 RES1               0.0000
     22 H22        110.7368 247.1208 322.6890 H              1 RES1               0.0000
     23 H23        110.3997 243.6424 324.7591 H              1 RES1               0.0000
     24 H24        111.2856 247.4883 328.2316 H              1 RES1               0.0000
     25 H25        110.6474 247.6484 326.5970 H              1 RES1               0.0000
     26 H26        110.7194 246.0632 327.3635 H              1 RES1               0.0000
     27 H27        117.0358 247.4126 324.2363 H              1 RES1               0.0000
     28 H28        115.9640 243.3649 323.4318 H              1 RES1               0.0000
     29 H29        117.6402 245.1715 323.4063 H              1 RES1               0.0000
@<TRIPOS>BOND
    1    1    2 1     
    2    1    3 1     
    3    1    4 1     
    4    1    5 1     
    5    2    6 ar    
    6    2    7 ar    
    7    3    8 1     
    8    3    9 2     
    9    4   10 1     
   10    4   11 2     
   11    5   12 1     
   12    5   18 1     
   13    5   19 1     
   14    6   13 ar    
   15    6   20 1     
   16    7   14 ar    
   17    7   21 1     
   18    8   15 1     
   19    8   22 1     
   20   10   15 1     
   21   10   23 1     
   22   12   24 1     
   23   12   25 1     
   24   12   26 1     
   25   13   16 ar    
   26   13   27 1     
   27   14   16 ar    
   28   14   28 1     
   29   15   17 2     
   30   16   29 1     
@<TRIPOS>SUBSTRUCTURE
      1 RES1           1
@<TRIPOS>SET
DONOR_HYDROGENS      STATIC     ATOMS    <user>   **** ""
2 22 23
ATOM$RED        STATIC     ATOMS    COLORGROUP SYSTEM
2 22 23
@<TRIPOS>COMMENT
> <Gold.Version>
2022.3.0

> <Gold.Id.Protein>
unknown|5adf_clean|pdb

> <Gold.Protein.RotatedTorsions>
[ 8428 8423 8424 8425 ] final  -22.05 input   46.96 | X-H torsion
[ 8452 8445 8446 8447 ] final   23.19 input  111.34 | X-H torsion
[ 8996 8992 8993 8994 ] final  102.97 input   44.62 | X-H torsion
[ 9030 9016 9017 9018 ] final  155.54 input   32.56 | X-H torsion
[ 9074 9062 9063 9064 ] final   81.52 input   99.28 | X-H torsion
[ 9082 9073 9072 9070 ] final  147.59 input   59.99 | X-H torsion
[ 9108 9100 9101 9102 ] final  128.98 input   89.92 | X-H torsion
[ 9186 9177 9178 9179 ] final  -10.82 input  116.56 | X-H torsion
[ 3596 3592 3593 3594 ] final -141.11 input   84.58 | X-H torsion
[ 8978 8972 8973 8974 ] final -109.66 input   29.23 | X-H torsion
[ 9134 9130 9131 9132 ] final -178.84 input  126.15 | X-H torsion
[ 4890 4885 4884 4881 ] final  -33.52 input   60.00 | X-H torsion
[ 8982 8977 8976 8973 ] final  117.30 input   60.00 | X-H torsion
[ 3570 3563 3564 3565 ] final   51.33 input  100.61 | X-H torsion
[ 3548 3542 3543 3544 ] final  -45.76 input   82.26 | X-H torsion
[ 8482 8476 8477 8478 ] final  -20.12 input   53.28 | X-H torsion
[ 8948 8937 8938 8939 ] final  111.69 input   48.32 | X-H torsion
[ 12872 12863 12862 12860 ] final  -48.06 input   60.03 | X-H torsion
[ 5550 5545 5544 5541 ] final   99.01 input   60.00 | X-H torsion
[ 5574 5565 5566 5567 ] final  112.17 input   49.17 | X-H torsion
[ 8328 8319 8318 8316 ] final  153.69 input   60.00 | X-H torsion
[ 5546 5540 5541 5542 ] final -102.88 input  103.84 | X-H torsion
[ 8508 8500 8501 8502 ] final  174.24 input   63.30 | X-H torsion
[ 8486 8481 8480 8477 ] final -108.84 input   60.02 | X-H torsion
[ 8536 8528 8529 8530 ] final  142.74 input   88.08 | X-H torsion
[ 12864 12852 12853 12854 ] final   61.03 input  106.44 | X-H torsion
[ 12900 12891 12892 12893 ] final  -37.30 input   37.87 | X-H torsion
[ 9214 9206 9207 9208 ] final  -20.81 input   89.32 | X-H torsion
[ 11050 11043 11044 11045 ] final  -87.86 input   52.80 | X-H torsion
[ 5606 5598 5599 5600 ] final  160.57 input  119.27 | X-H torsion
[ 8570 8562 8563 8564 ] final -111.37 input   68.50 | X-H torsion
[ 13460 8400 8399 8398 ] final  164.52 input   -0.00 | X-H torsion
[ 13464 8940 8939 8938 ] final   60.98 input   -0.00 | X-H torsion
[ 13467 8995 8994 8993 ] final   67.19 input    0.00 | X-H torsion
[ 13470 9019 9018 9017 ] final  168.19 input    0.00 | X-H torsion
[ 13473 9065 9064 9063 ] final   19.84 input   -0.00 | X-H torsion
[ 13478 9103 9102 9101 ] final   93.58 input   -0.00 | X-H torsion
[ 13491 8975 8974 8973 ] final -135.85 input    0.00 | X-H torsion
[ 13493 8345 8344 8343 ] final  110.38 input    0.00 | X-H torsion
[ 13501 8448 8447 8446 ] final   59.28 input    0.00 | X-H torsion
[ 13503 3502 3501 3500 ] final  163.81 input    0.00 | X-H torsion
[ 13506 8426 8425 8424 ] final  104.43 input    0.00 | X-H torsion
[ 13514 5543 5542 5541 ] final   36.92 input   -0.00 | X-H torsion
[ 13525 9180 9179 9178 ] final  157.85 input    0.00 | X-H torsion
[ 13531 5517 5516 5515 ] final -176.80 input    0.00 | X-H torsion
[ 13535 8503 8502 8501 ] final  104.12 input   -0.00 | X-H torsion
[ 13538 5568 5567 5566 ] final -139.21 input   -0.00 | X-H torsion
[ 13540 8479 8478 8477 ] final  -13.70 input   -0.00 | X-H torsion
[ 13545 12894 12893 12892 ] final -172.67 input    0.00 | X-H torsion
[ 13547 12822 12821 12820 ] final -167.11 input   -0.00 | X-H torsion

> <Gold.Protein.ActiveResidues>
 TRP311  MET341  HIS342  TRP414  ALA417  ARG419  CYS420  VAL421  GLY422  LEU460 
 SER462  ASN481  SER482  GLN483  LEU484  ARG486  ALA502  ASN503  TRP566  TYR567 
 GLY568  LEU569  PRO570  ALA571  VAL572  SER573  ASN574  MET575  LEU576  PHE589 
 SER590  GLY591  TRP592  TYR593  MET594  GLY595  GLU597  ILE598  ARG601  ASP602 
 ARG608  ILE653  VAL654  TRP683  PHE709  GLU710  TYR711  GLN712  ASP714  HEM750 
 H4B760 

> <Gold.Protein.RotatedAtoms>
  120.4825  251.0408  330.0636 H   0  0  0  0  0  0  0  0  0  0  0  0  # atno 3548 bound_to 3542
  122.3030  247.9304  328.5677 H   0  0  0  0  0  0  0  0  0  0  0  0  # atno 3570 bound_to 3563
  124.5687  247.1634  328.3298 H   0  0  0  0  0  0  0  0  0  0  0  0  # atno 3596 bound_to 3592
  124.7235  245.4056  318.2766 H   0  0  0  0  0  0  0  0  0  0  0  0  # atno 4890 bound_to 4885
  106.2918  245.0529  317.5439 H   0  0  0  0  0  0  0  0  0  0  0  0  # atno 5546 bound_to 5540
  107.8818  242.9827  321.3697 H   0  0  0  0  0  0  0  0  0  0  0  0  # atno 5550 bound_to 5545
  108.8766  243.0164  319.4004 H   0  0  0  0  0  0  0  0  0  0  0  0  # atno 5574 bound_to 5565
  111.8446  243.5086  315.9783 H   0  0  0  0  0  0  0  0  0  0  0  0  # atno 5606 bound_to 5598
  112.9428  238.4716  321.5836 H   0  0  0  0  0  0  0  0  0  0  0  0  # atno 8328 bound_to 8319
  115.3475  242.4735  319.2079 H   0  0  0  0  0  0  0  0  0  0  0  0  # atno 8428 bound_to 8423
  115.1836  245.7190  317.9379 H   0  0  0  0  0  0  0  0  0  0  0  0  # atno 8452 bound_to 8445
  111.5800  247.4803  318.7551 H   0  0  0  0  0  0  0  0  0  0  0  0  # atno 8482 bound_to 8476
  110.4972  244.8849  316.2585 H   0  0  0  0  0  0  0  0  0  0  0  0  # atno 8486 bound_to 8481
  109.6780  248.0637  317.8399 H   0  0  0  0  0  0  0  0  0  0  0  0  # atno 8508 bound_to 8500
  110.6977  250.6281  319.5717 H   0  0  0  0  0  0  0  0  0  0  0  0  # atno 8536 bound_to 8528
  110.6586  254.2041  319.0090 H   0  0  0  0  0  0  0  0  0  0  0  0  # atno 8570 bound_to 8562
  115.5776  249.2502  316.1905 H   0  0  0  0  0  0  0  0  0  0  0  0  # atno 8948 bound_to 8937
  118.4437  247.2306  317.1305 H   0  0  0  0  0  0  0  0  0  0  0  0  # atno 8978 bound_to 8972
  120.5314  243.4049  315.0111 H   0  0  0  0  0  0  0  0  0  0  0  0  # atno 8982 bound_to 8977
  120.3928  244.7373  319.2298 H   0  0  0  0  0  0  0  0  0  0  0  0  # atno 8996 bound_to 8992
  123.4780  242.5909  319.7096 H   0  0  0  0  0  0  0  0  0  0  0  0  # atno 9030 bound_to 9016
  122.4961  238.6961  322.1273 H   0  0  0  0  0  0  0  0  0  0  0  0  # atno 9074 bound_to 9062
  115.1544  238.0852  321.4440 H   0  0  0  0  0  0  0  0  0  0  0  0  # atno 9082 bound_to 9073
  121.6641  240.6779  326.0511 H   0  0  0  0  0  0  0  0  0  0  0  0  # atno 9108 bound_to 9100
  123.1525  237.0957  327.8193 H   0  0  0  0  0  0  0  0  0  0  0  0  # atno 9134 bound_to 9130
  118.2106  236.9840  329.8793 H   0  0  0  0  0  0  0  0  0  0  0  0  # atno 9186 bound_to 9177
  116.7205  236.5400  329.1197 H   0  0  0  0  0  0  0  0  0  0  0  0  # atno 9214 bound_to 9206
  126.2278  236.5976  325.2921 H   0  0  0  0  0  0  0  0  0  0  0  0  # atno 11050 bound_to 11043
  109.6374  256.8667  324.7811 H   0  0  0  0  0  0  0  0  0  0  0  0  # atno 12864 bound_to 12852
  110.8158  250.6076  328.8749 H   0  0  0  0  0  0  0  0  0  0  0  0  # atno 12872 bound_to 12863
  106.5271  254.5596  323.5234 H   0  0  0  0  0  0  0  0  0  0  0  0  # atno 12900 bound_to 12891
  117.9885  243.6242  318.0906 LP  0  0  0  0  0  0  0  0  0  0  0  0  # atno 13460 bound_to 8400
  118.7529  242.7306  319.3623 LP  0  0  0  0  0  0  0  0  0  0  0  0  # atno 13461 bound_to 8400
  116.3412  241.6871  318.0062 LP  0  0  0  0  0  0  0  0  0  0  0  0  # atno 13462 bound_to 8423
  114.8463  244.5183  319.1631 LP  0  0  0  0  0  0  0  0  0  0  0  0  # atno 13463 bound_to 8445
  116.0993  246.2065  316.8159 LP  0  0  0  0  0  0  0  0  0  0  0  0  # atno 13464 bound_to 8940
  117.0049  246.3391  318.2864 LP  0  0  0  0  0  0  0  0  0  0  0  0  # atno 13465 bound_to 8940
  120.8387  244.2193  317.6191 LP  0  0  0  0  0  0  0  0  0  0  0  0  # atno 13466 bound_to 8992
  123.1513  241.8875  317.5302 LP  0  0  0  0  0  0  0  0  0  0  0  0  # atno 13467 bound_to 8995
  121.7171  241.2354  318.2499 LP  0  0  0  0  0  0  0  0  0  0  0  0  # atno 13468 bound_to 8995
  122.2866  242.8789  320.9526 LP  0  0  0  0  0  0  0  0  0  0  0  0  # atno 13469 bound_to 9016
  121.8415  241.6334  323.8043 LP  0  0  0  0  0  0  0  0  0  0  0  0  # atno 13470 bound_to 9019
  122.7211  242.5496  322.6266 LP  0  0  0  0  0  0  0  0  0  0  0  0  # atno 13471 bound_to 9019
  122.0565  240.3869  322.2093 LP  0  0  0  0  0  0  0  0  0  0  0  0  # atno 13472 bound_to 9062
  123.9541  238.6962  324.0162 LP  0  0  0  0  0  0  0  0  0  0  0  0  # atno 13473 bound_to 9065
  124.0785  238.4903  325.7315 LP  0  0  0  0  0  0  0  0  0  0  0  0  # atno 13474 bound_to 9065
  114.7856  238.8632  322.8250 LP  0  0  0  0  0  0  0  0  0  0  0  0  # atno 13475 bound_to 9073
  114.7744  237.2310  322.7760 LP  0  0  0  0  0  0  0  0  0  0  0  0  # atno 13476 bound_to 9073
  121.8311  239.0316  325.4841 LP  0  0  0  0  0  0  0  0  0  0  0  0  # atno 13477 bound_to 9100
  120.0465  237.7457  326.9401 LP  0  0  0  0  0  0  0  0  0  0  0  0  # atno 13478 bound_to 9103
  119.8630  238.5216  328.4777 LP  0  0  0  0  0  0  0  0  0  0  0  0  # atno 13479 bound_to 9103
  118.9639  238.5551  329.8053 LP  0  0  0  0  0  0  0  0  0  0  0  0  # atno 13480 bound_to 9177
  124.0665  248.5586  327.4084 LP  0  0  0  0  0  0  0  0  0  0  0  0  # atno 13489 bound_to 3592
  119.4297  246.8989  315.7276 LP  0  0  0  0  0  0  0  0  0  0  0  0  # atno 13490 bound_to 8972
  122.5580  245.5553  316.7917 LP  0  0  0  0  0  0  0  0  0  0  0  0  # atno 13491 bound_to 8975
  121.4779  246.9073  316.8658 LP  0  0  0  0  0  0  0  0  0  0  0  0  # atno 13492 bound_to 8975
  121.0665  237.3566  318.4366 LP  0  0  0  0  0  0  0  0  0  0  0  0  # atno 13493 bound_to 8345
  120.2600  236.8702  319.8901 LP  0  0  0  0  0  0  0  0  0  0  0  0  # atno 13494 bound_to 8345
  121.9682  237.9059  328.8188 LP  0  0  0  0  0  0  0  0  0  0  0  0  # atno 13495 bound_to 9130
  125.3010  246.7317  319.0229 LP  0  0  0  0  0  0  0  0  0  0  0  0  # atno 13496 bound_to 4885
  126.3155  245.7387  318.2159 LP  0  0  0  0  0  0  0  0  0  0  0  0  # atno 13497 bound_to 4885
  120.6427  245.0203  315.1699 LP  0  0  0  0  0  0  0  0  0  0  0  0  # atno 13498 bound_to 8977
  119.5282  244.3702  314.1689 LP  0  0  0  0  0  0  0  0  0  0  0  0  # atno 13499 bound_to 8977
  122.3259  249.3246  329.6247 LP  0  0  0  0  0  0  0  0  0  0  0  0  # atno 13500 bound_to 3563
  114.6114  247.4468  317.0117 LP  0  0  0  0  0  0  0  0  0  0  0  0  # atno 13501 bound_to 8448
  113.7133  248.8400  317.5141 LP  0  0  0  0  0  0  0  0  0  0  0  0  # atno 13502 bound_to 8448
  119.7234  248.8468  329.7599 LP  0  0  0  0  0  0  0  0  0  0  0  0  # atno 13503 bound_to 3502
  118.8737  249.4195  331.1563 LP  0  0  0  0  0  0  0  0  0  0  0  0  # atno 13504 bound_to 3502
  120.0546  251.8464  328.5740 LP  0  0  0  0  0  0  0  0  0  0  0  0  # atno 13505 bound_to 3542
  112.6461  243.7431  317.7312 LP  0  0  0  0  0  0  0  0  0  0  0  0  # atno 13506 bound_to 8426
  113.2203  244.5517  316.3112 LP  0  0  0  0  0  0  0  0  0  0  0  0  # atno 13507 bound_to 8426
  112.2541  246.2405  317.7281 LP  0  0  0  0  0  0  0  0  0  0  0  0  # atno 13510 bound_to 8476
  115.7009  247.9576  315.0216 LP  0  0  0  0  0  0  0  0  0  0  0  0  # atno 13511 bound_to 8937
  109.7737  246.1181  320.2001 LP  0  0  0  0  0  0  0  0  0  0  0  0  # atno 13514 bound_to 5543
  110.6749  245.6089  318.8114 LP  0  0  0  0  0  0  0  0  0  0  0  0  # atno 13515 bound_to 5543
  111.3777  251.9294  329.6401 LP  0  0  0  0  0  0  0  0  0  0  0  0  # atno 13516 bound_to 12863
  112.1389  251.3677  328.3092 LP  0  0  0  0  0  0  0  0  0  0  0  0  # atno 13517 bound_to 12863
  107.0198  242.8238  319.9987 LP  0  0  0  0  0  0  0  0  0  0  0  0  # atno 13518 bound_to 5545
  106.2559  242.9752  321.4341 LP  0  0  0  0  0  0  0  0  0  0  0  0  # atno 13519 bound_to 5545
  108.6900  244.2547  318.1788 LP  0  0  0  0  0  0  0  0  0  0  0  0  # atno 13520 bound_to 5565
  111.8267  237.3471  321.9558 LP  0  0  0  0  0  0  0  0  0  0  0  0  # atno 13523 bound_to 8319
  111.5763  238.3678  320.7059 LP  0  0  0  0  0  0  0  0  0  0  0  0  # atno 13524 bound_to 8319
  114.2901  236.8840  328.0674 LP  0  0  0  0  0  0  0  0  0  0  0  0  # atno 13525 bound_to 9180
  114.4693  238.1470  329.2391 LP  0  0  0  0  0  0  0  0  0  0  0  0  # atno 13526 bound_to 9180
  106.4286  243.4985  318.3264 LP  0  0  0  0  0  0  0  0  0  0  0  0  # atno 13529 bound_to 5540
  110.7267  249.3355  318.4060 LP  0  0  0  0  0  0  0  0  0  0  0  0  # atno 13530 bound_to 8500
  107.8139  246.4733  317.4681 LP  0  0  0  0  0  0  0  0  0  0  0  0  # atno 13531 bound_to 5517
  107.1730  246.4050  315.8604 LP  0  0  0  0  0  0  0  0  0  0  0  0  # atno 13532 bound_to 5517
  109.1532  245.5984  315.6806 LP  0  0  0  0  0  0  0  0  0  0  0  0  # atno 13533 bound_to 8481
  109.7340  246.0131  317.1494 LP  0  0  0  0  0  0  0  0  0  0  0  0  # atno 13534 bound_to 8481
  108.0003  251.7890  320.8023 LP  0  0  0  0  0  0  0  0  0  0  0  0  # atno 13535 bound_to 8503
  107.4757  252.3468  319.2487 LP  0  0  0  0  0  0  0  0  0  0  0  0  # atno 13536 bound_to 8503
  109.5573  251.4881  318.5707 LP  0  0  0  0  0  0  0  0  0  0  0  0  # atno 13537 bound_to 8528
  109.2802  241.1514  315.8794 LP  0  0  0  0  0  0  0  0  0  0  0  0  # atno 13538 bound_to 5568
  108.4204  242.4220  316.6834 LP  0  0  0  0  0  0  0  0  0  0  0  0  # atno 13539 bound_to 5568
  109.8517  249.2609  315.1132 LP  0  0  0  0  0  0  0  0  0  0  0  0  # atno 13540 bound_to 8479
  108.6180  249.7580  316.2228 LP  0  0  0  0  0  0  0  0  0  0  0  0  # atno 13541 bound_to 8479
  103.7433  252.8478  322.4140 LP  0  0  0  0  0  0  0  0  0  0  0  0  # atno 13545 bound_to 12894
  105.4251  253.1665  322.6788 LP  0  0  0  0  0  0  0  0  0  0  0  0  # atno 13546 bound_to 12894
  109.7186  254.9802  322.0545 LP  0  0  0  0  0  0  0  0  0  0  0  0  # atno 13547 bound_to 12822
  111.2828  255.5775  321.6109 LP  0  0  0  0  0  0  0  0  0  0  0  0  # atno 13548 bound_to 12822
  110.6334  255.6691  323.9905 LP  0  0  0  0  0  0  0  0  0  0  0  0  # atno 13549 bound_to 12852
  107.5961  255.1278  322.2626 LP  0  0  0  0  0  0  0  0  0  0  0  0  # atno 13550 bound_to 12891

> <Gold.Score>
     Fitness  S(hb_ext) S(vdw_ext)  S(hb_int)    S(int)      intcor
     28.19       2.01      20.47       0.00      -1.97      -0.76

> <Gold.Goldscore.Fitness>
28.1915

> <Gold.Goldscore.Internal.Vdw>
-2.3552

> <Gold.Goldscore.Internal.Torsion>
-0.3797

> <Gold.Goldscore.External.Vdw>
20.4702

> <Gold.Goldscore.Internal.HBond>
0.0000

> <Gold.Goldscore.External.HBond>
2.0149

> <Gold.Goldscore.Internal.Correction>
-0.7650

> <Gold.Goldscore.Hbonds>
donor molecule, donor type, donor heavy atom, donor atom, acceptor molecule, acceptor atom, score
      L1  H     8    22       P1  8507  0.34

> <Gold.Goldscore.Internal.Vdw.Weighted>
-2.3552

> <Gold.Goldscore.Internal.Torsion.Weighted>
-0.3797

> <Gold.Goldscore.External.Vdw.Weighted>
28.1465

> <Gold.Goldscore.Internal.HBond.Weighted>
0.0000

> <Gold.Goldscore.External.HBond.Weighted>
2.0149

> <Gold.Goldscore.Internal.Correction.Weighted>
-0.7650

> <Gold.Rescore>
     Score     S(PLP)   S(hbond)     S(cho)   S(metal)  DE(clash)   DE(tors)     intcor
     36.80     -38.67       0.00       0.00       0.00       0.97       0.45       ----

> <Gold.PLP.Fitness>
36.8043

> <Gold.PLP.PLP>
-38.6681

> <Gold.PLP.part.hbond>
-1.0000

> <Gold.PLP.part.metal>
0.0000

> <Gold.PLP.part.buried>
-3.4715

> <Gold.PLP.part.nonpolar>
-35.0894

> <Gold.PLP.part.repulsive>
0.9456

> <Gold.PLP.ligand.clash>
0.9731

> <Gold.PLP.ligand.torsion>
0.4454

> <Gold.PLP.Chemscore.Hbond>
0.0000

> <Gold.PLP.Chemscore.CHOScore>
0.0000

> <Gold.PLP.Chemscore.Metal>
0.0000

> <Gold.PLP.Chemscore.Internal.Correction>
   9.000000E+99

