#       Name:                CT1002167954
#       Creating user name   hitesit
#       Creation time:       Sun Apr 16 22:52:03 2023


#       File generated by GOLD software.
#

@<TRIPOS>MOLECULE
CT1002167954|ligand_prepared|mol2|1|dock2
    29    30     1
SMALL
NO_CHARGES


@<TRIPOS>ATOM
      1 C1         111.8835 242.1893 325.7608 C.3            1 RES1               0.0000
      2 C2         111.2787 243.2371 324.8042 C.ar           1 RES1               0.0000
      3 C3         110.7175 241.3407 326.2593 C.2            1 RES1               0.0000
      4 C4         112.9143 241.4140 324.9477 C.2            1 RES1               0.0000
      5 C5         112.6033 242.8024 326.9846 C.3            1 RES1               0.0000
      6 C6         110.2775 242.8815 323.9053 C.ar           1 RES1               0.0000
      7 C7         111.7090 244.5613 324.8107 C.ar           1 RES1               0.0000
      8 N8         110.5970 240.0772 325.7604 N.am           1 RES1               0.0000
      9 O9         109.8937 241.7871 327.0481 O.2            1 RES1               0.0000
     10 N10        112.6750 240.0866 324.7060 N.am           1 RES1               0.0000
     11 O11        113.9234 241.9447 324.5001 O.2            1 RES1               0.0000
     12 C12        113.0518 241.7739 328.0108 C.3            1 RES1               0.0000
     13 C13        109.7244 243.8165 323.0461 C.ar           1 RES1               0.0000
     14 C14        111.1546 245.4946 323.9504 C.ar           1 RES1               0.0000
     15 C15        111.5481 239.3905 325.0493 C.2            1 RES1               0.0000
     16 C16        110.1622 245.1236 323.0683 C.ar           1 RES1               0.0000
     17 O17        111.3821 238.2118 324.7489 O.2            1 RES1               0.0000
     18 H18        113.4817 243.3591 326.6353 H              1 RES1               0.0000
     19 H19        111.9265 243.5152 327.4717 H              1 RES1               0.0000
     20 H20        109.9220 241.8571 323.8717 H              1 RES1               0.0000
     21 H21        112.4894 244.8756 325.4954 H              1 RES1               0.0000
     22 H22        109.7184 239.5986 325.9318 H              1 RES1               0.0000
     23 H23        113.4045 239.5694 324.2257 H              1 RES1               0.0000
     24 H24        113.5508 242.2570 328.8483 H              1 RES1               0.0000
     25 H25        112.2001 241.2187 328.3982 H              1 RES1               0.0000
     26 H26        113.7460 241.0634 327.5668 H              1 RES1               0.0000
     27 H27        108.9445 243.5191 322.3528 H              1 RES1               0.0000
     28 H28        111.5027 246.5221 323.9709 H              1 RES1               0.0000
     29 H29        109.7284 245.8559 322.3954 H              1 RES1               0.0000
@<TRIPOS>BOND
    1    1    2 1     
    2    1    3 1     
    3    1    4 1     
    4    1    5 1     
    5    2    6 ar    
    6    2    7 ar    
    7    3    8 1     
    8    3    9 2     
    9    4   10 1     
   10    4   11 2     
   11    5   12 1     
   12    5   18 1     
   13    5   19 1     
   14    6   13 ar    
   15    6   20 1     
   16    7   14 ar    
   17    7   21 1     
   18    8   15 1     
   19    8   22 1     
   20   10   15 1     
   21   10   23 1     
   22   12   24 1     
   23   12   25 1     
   24   12   26 1     
   25   13   16 ar    
   26   13   27 1     
   27   14   16 ar    
   28   14   28 1     
   29   15   17 2     
   30   16   29 1     
@<TRIPOS>SUBSTRUCTURE
      1 RES1           1
@<TRIPOS>SET
DONOR_HYDROGENS      STATIC     ATOMS    <user>   **** ""
2 22 23
ATOM$RED        STATIC     ATOMS    COLORGROUP SYSTEM
2 22 23
@<TRIPOS>COMMENT
> <Gold.Version>
2022.3.0

> <Gold.Id.Protein>
unknown|5adf_clean|pdb

> <Gold.Protein.RotatedTorsions>
[ 8428 8423 8424 8425 ] final -125.42 input   46.96 | X-H torsion
[ 8452 8445 8446 8447 ] final  -14.63 input  111.34 | X-H torsion
[ 8996 8992 8993 8994 ] final  148.79 input   44.62 | X-H torsion
[ 9030 9016 9017 9018 ] final -175.20 input   32.56 | X-H torsion
[ 9074 9062 9063 9064 ] final  161.93 input   99.28 | X-H torsion
[ 9082 9073 9072 9070 ] final   -1.25 input   59.99 | X-H torsion
[ 9108 9100 9101 9102 ] final  116.08 input   89.92 | X-H torsion
[ 9186 9177 9178 9179 ] final  102.74 input  116.56 | X-H torsion
[ 3596 3592 3593 3594 ] final  135.98 input   84.58 | X-H torsion
[ 8978 8972 8973 8974 ] final   74.83 input   29.23 | X-H torsion
[ 9134 9130 9131 9132 ] final  161.63 input  126.15 | X-H torsion
[ 4890 4885 4884 4881 ] final -148.04 input   60.00 | X-H torsion
[ 8982 8977 8976 8973 ] final   49.54 input   60.00 | X-H torsion
[ 3570 3563 3564 3565 ] final -110.01 input  100.61 | X-H torsion
[ 3548 3542 3543 3544 ] final   19.03 input   82.26 | X-H torsion
[ 8482 8476 8477 8478 ] final  -50.67 input   53.28 | X-H torsion
[ 8948 8937 8938 8939 ] final  -35.97 input   48.32 | X-H torsion
[ 12872 12863 12862 12860 ] final  -35.40 input   60.03 | X-H torsion
[ 5550 5545 5544 5541 ] final   18.60 input   60.00 | X-H torsion
[ 5574 5565 5566 5567 ] final   53.32 input   49.17 | X-H torsion
[ 8328 8319 8318 8316 ] final  -34.91 input   60.00 | X-H torsion
[ 5546 5540 5541 5542 ] final -167.36 input  103.84 | X-H torsion
[ 8508 8500 8501 8502 ] final    5.74 input   63.30 | X-H torsion
[ 8486 8481 8480 8477 ] final   86.97 input   60.02 | X-H torsion
[ 8536 8528 8529 8530 ] final -129.71 input   88.08 | X-H torsion
[ 12864 12852 12853 12854 ] final  -52.37 input  106.44 | X-H torsion
[ 12900 12891 12892 12893 ] final -150.51 input   37.87 | X-H torsion
[ 9214 9206 9207 9208 ] final -179.61 input   89.32 | X-H torsion
[ 11050 11043 11044 11045 ] final   42.55 input   52.80 | X-H torsion
[ 5606 5598 5599 5600 ] final -122.85 input  119.27 | X-H torsion
[ 8570 8562 8563 8564 ] final   -0.91 input   68.50 | X-H torsion
[ 13460 8400 8399 8398 ] final  141.55 input   -0.00 | X-H torsion
[ 13464 8940 8939 8938 ] final   97.80 input   -0.00 | X-H torsion
[ 13467 8995 8994 8993 ] final  -25.69 input    0.00 | X-H torsion
[ 13470 9019 9018 9017 ] final  108.87 input    0.00 | X-H torsion
[ 13473 9065 9064 9063 ] final  161.22 input   -0.00 | X-H torsion
[ 13478 9103 9102 9101 ] final -133.22 input   -0.00 | X-H torsion
[ 13491 8975 8974 8973 ] final -159.62 input    0.00 | X-H torsion
[ 13493 8345 8344 8343 ] final  -42.44 input    0.00 | X-H torsion
[ 13501 8448 8447 8446 ] final -137.16 input    0.00 | X-H torsion
[ 13503 3502 3501 3500 ] final  150.08 input    0.00 | X-H torsion
[ 13506 8426 8425 8424 ] final  112.96 input    0.00 | X-H torsion
[ 13514 5543 5542 5541 ] final   60.43 input   -0.00 | X-H torsion
[ 13525 9180 9179 9178 ] final  -47.83 input    0.00 | X-H torsion
[ 13531 5517 5516 5515 ] final -111.89 input    0.00 | X-H torsion
[ 13535 8503 8502 8501 ] final  -71.31 input   -0.00 | X-H torsion
[ 13538 5568 5567 5566 ] final  -94.32 input   -0.00 | X-H torsion
[ 13540 8479 8478 8477 ] final -107.72 input   -0.00 | X-H torsion
[ 13545 12894 12893 12892 ] final  -48.48 input    0.00 | X-H torsion
[ 13547 12822 12821 12820 ] final  146.01 input   -0.00 | X-H torsion

> <Gold.Protein.ActiveResidues>
 TRP311  MET341  HIS342  TRP414  ALA417  ARG419  CYS420  VAL421  GLY422  LEU460 
 SER462  ASN481  SER482  GLN483  LEU484  ARG486  ALA502  ASN503  TRP566  TYR567 
 GLY568  LEU569  PRO570  ALA571  VAL572  SER573  ASN574  MET575  LEU576  PHE589 
 SER590  GLY591  TRP592  TYR593  MET594  GLY595  GLU597  ILE598  ARG601  ASP602 
 ARG608  ILE653  VAL654  TRP683  PHE709  GLU710  TYR711  GLN712  ASP714  HEM750 
 H4B760 

> <Gold.Protein.RotatedAtoms>
  121.0332  251.6993  329.6676 H   0  0  0  0  0  0  0  0  0  0  0  0  # atno 3548 bound_to 3542
  122.4816  249.4514  329.4218 H   0  0  0  0  0  0  0  0  0  0  0  0  # atno 3570 bound_to 3563
  123.7061  247.3099  327.5598 H   0  0  0  0  0  0  0  0  0  0  0  0  # atno 3596 bound_to 3592
  125.2148  246.7062  319.0182 H   0  0  0  0  0  0  0  0  0  0  0  0  # atno 4890 bound_to 4885
  105.6847  244.7677  318.2014 H   0  0  0  0  0  0  0  0  0  0  0  0  # atno 5546 bound_to 5540
  107.6242  242.8520  320.1964 H   0  0  0  0  0  0  0  0  0  0  0  0  # atno 5550 bound_to 5545
  108.5099  242.8122  318.6356 H   0  0  0  0  0  0  0  0  0  0  0  0  # atno 5574 bound_to 5565
  110.7672  243.3784  316.1169 H   0  0  0  0  0  0  0  0  0  0  0  0  # atno 5606 bound_to 5598
  111.2806  237.7451  321.1405 H   0  0  0  0  0  0  0  0  0  0  0  0  # atno 8328 bound_to 8319
  116.6672  242.3263  318.8172 H   0  0  0  0  0  0  0  0  0  0  0  0  # atno 8428 bound_to 8423
  114.8122  245.3361  317.7259 H   0  0  0  0  0  0  0  0  0  0  0  0  # atno 8452 bound_to 8445
  112.0074  247.6267  318.6513 H   0  0  0  0  0  0  0  0  0  0  0  0  # atno 8482 bound_to 8476
  109.0332  246.0246  316.2318 H   0  0  0  0  0  0  0  0  0  0  0  0  # atno 8486 bound_to 8481
  110.7301  249.2492  318.5591 H   0  0  0  0  0  0  0  0  0  0  0  0  # atno 8508 bound_to 8500
  109.5252  250.9165  319.6926 H   0  0  0  0  0  0  0  0  0  0  0  0  # atno 8536 bound_to 8528
  111.4890  254.8507  320.0130 H   0  0  0  0  0  0  0  0  0  0  0  0  # atno 8570 bound_to 8562
  115.5983  247.7295  315.4393 H   0  0  0  0  0  0  0  0  0  0  0  0  # atno 8948 bound_to 8937
  119.3830  246.8700  315.6835 H   0  0  0  0  0  0  0  0  0  0  0  0  # atno 8978 bound_to 8972
  120.9376  244.2831  315.4017 H   0  0  0  0  0  0  0  0  0  0  0  0  # atno 8982 bound_to 8977
  120.6221  245.2558  318.8342 H   0  0  0  0  0  0  0  0  0  0  0  0  # atno 8996 bound_to 8992
  123.0869  242.5495  319.5020 H   0  0  0  0  0  0  0  0  0  0  0  0  # atno 9030 bound_to 9016
  121.5504  239.2322  321.7676 H   0  0  0  0  0  0  0  0  0  0  0  0  # atno 9074 bound_to 9062
  114.6990  238.5225  323.1339 H   0  0  0  0  0  0  0  0  0  0  0  0  # atno 9082 bound_to 9073
  121.4843  240.6154  326.1105 H   0  0  0  0  0  0  0  0  0  0  0  0  # atno 9108 bound_to 9100
  123.2878  237.0735  328.0868 H   0  0  0  0  0  0  0  0  0  0  0  0  # atno 9134 bound_to 9130
  119.0623  237.9020  329.1148 H   0  0  0  0  0  0  0  0  0  0  0  0  # atno 9186 bound_to 9177
  116.8969  236.9727  327.4305 H   0  0  0  0  0  0  0  0  0  0  0  0  # atno 9214 bound_to 9206
  125.1621  237.7135  325.7051 H   0  0  0  0  0  0  0  0  0  0  0  0  # atno 11050 bound_to 11043
  110.1856  256.3655  323.5061 H   0  0  0  0  0  0  0  0  0  0  0  0  # atno 12864 bound_to 12852
  110.9266  250.5539  328.7093 H   0  0  0  0  0  0  0  0  0  0  0  0  # atno 12872 bound_to 12863
  107.3761  255.6637  323.0309 H   0  0  0  0  0  0  0  0  0  0  0  0  # atno 12900 bound_to 12891
  118.1483  243.3753  317.9132 LP  0  0  0  0  0  0  0  0  0  0  0  0  # atno 13460 bound_to 8400
  118.5932  242.9795  319.5397 LP  0  0  0  0  0  0  0  0  0  0  0  0  # atno 13461 bound_to 8400
  115.0481  241.8313  318.3890 LP  0  0  0  0  0  0  0  0  0  0  0  0  # atno 13462 bound_to 8423
  115.2081  244.8912  319.3697 LP  0  0  0  0  0  0  0  0  0  0  0  0  # atno 13463 bound_to 8445
  116.4182  245.7645  316.8628 LP  0  0  0  0  0  0  0  0  0  0  0  0  # atno 13464 bound_to 8940
  116.6859  246.7811  318.2394 LP  0  0  0  0  0  0  0  0  0  0  0  0  # atno 13465 bound_to 8940
  120.6163  243.7163  318.0029 LP  0  0  0  0  0  0  0  0  0  0  0  0  # atno 13466 bound_to 8992
  121.9207  242.1301  317.4865 LP  0  0  0  0  0  0  0  0  0  0  0  0  # atno 13467 bound_to 8995
  122.9478  240.9928  318.2936 LP  0  0  0  0  0  0  0  0  0  0  0  0  # atno 13468 bound_to 8995
  122.6711  242.9196  321.1566 LP  0  0  0  0  0  0  0  0  0  0  0  0  # atno 13469 bound_to 9016
  121.4168  242.0488  323.1866 LP  0  0  0  0  0  0  0  0  0  0  0  0  # atno 13470 bound_to 9019
  123.1458  242.1341  323.2443 LP  0  0  0  0  0  0  0  0  0  0  0  0  # atno 13471 bound_to 9019
  122.9755  239.8659  322.5589 LP  0  0  0  0  0  0  0  0  0  0  0  0  # atno 13472 bound_to 9062
  124.2644  239.0132  325.5895 LP  0  0  0  0  0  0  0  0  0  0  0  0  # atno 13473 bound_to 9065
  123.7682  238.1734  324.1582 LP  0  0  0  0  0  0  0  0  0  0  0  0  # atno 13474 bound_to 9065
  114.8928  237.1172  322.3364 LP  0  0  0  0  0  0  0  0  0  0  0  0  # atno 13475 bound_to 9073
  115.1255  238.5367  321.5635 LP  0  0  0  0  0  0  0  0  0  0  0  0  # atno 13476 bound_to 9073
  122.0057  239.0923  325.4265 LP  0  0  0  0  0  0  0  0  0  0  0  0  # atno 13477 bound_to 9100
  119.8533  237.8348  328.5154 LP  0  0  0  0  0  0  0  0  0  0  0  0  # atno 13478 bound_to 9103
  120.0562  238.4325  326.9025 LP  0  0  0  0  0  0  0  0  0  0  0  0  # atno 13479 bound_to 9103
  118.1218  237.6475  330.5611 LP  0  0  0  0  0  0  0  0  0  0  0  0  # atno 13480 bound_to 9177
  124.9147  248.4146  328.1654 LP  0  0  0  0  0  0  0  0  0  0  0  0  # atno 13489 bound_to 3592
  118.5088  247.2524  317.1464 LP  0  0  0  0  0  0  0  0  0  0  0  0  # atno 13490 bound_to 8972
  122.6392  245.6970  317.1090 LP  0  0  0  0  0  0  0  0  0  0  0  0  # atno 13491 bound_to 8975
  121.3967  246.7656  316.5485 LP  0  0  0  0  0  0  0  0  0  0  0  0  # atno 13492 bound_to 8975
  120.5263  236.5699  319.8235 LP  0  0  0  0  0  0  0  0  0  0  0  0  # atno 13493 bound_to 8345
  120.8001  237.6569  318.5032 LP  0  0  0  0  0  0  0  0  0  0  0  0  # atno 13494 bound_to 8345
  121.8365  237.9275  328.5586 LP  0  0  0  0  0  0  0  0  0  0  0  0  # atno 13495 bound_to 9130
  126.3436  245.8132  318.2584 LP  0  0  0  0  0  0  0  0  0  0  0  0  # atno 13496 bound_to 4885
  124.7784  245.3483  318.2341 LP  0  0  0  0  0  0  0  0  0  0  0  0  # atno 13497 bound_to 4885
  119.8514  245.0689  314.4798 LP  0  0  0  0  0  0  0  0  0  0  0  0  # atno 13498 bound_to 8977
  119.9103  243.4371  314.4656 LP  0  0  0  0  0  0  0  0  0  0  0  0  # atno 13499 bound_to 8977
  122.1528  247.8505  328.7970 LP  0  0  0  0  0  0  0  0  0  0  0  0  # atno 13500 bound_to 3563
  113.5946  248.7963  317.3013 LP  0  0  0  0  0  0  0  0  0  0  0  0  # atno 13501 bound_to 8448
  114.7301  247.4906  317.2245 LP  0  0  0  0  0  0  0  0  0  0  0  0  # atno 13502 bound_to 8448
  119.5356  248.8543  329.6732 LP  0  0  0  0  0  0  0  0  0  0  0  0  # atno 13503 bound_to 3502
  119.0615  249.4120  331.2430 LP  0  0  0  0  0  0  0  0  0  0  0  0  # atno 13504 bound_to 3502
  119.5150  251.2011  328.9621 LP  0  0  0  0  0  0  0  0  0  0  0  0  # atno 13505 bound_to 3542
  112.6041  243.8590  317.7686 LP  0  0  0  0  0  0  0  0  0  0  0  0  # atno 13506 bound_to 8426
  113.2622  244.4357  316.2738 LP  0  0  0  0  0  0  0  0  0  0  0  0  # atno 13507 bound_to 8426
  111.8334  246.0964  317.8303 LP  0  0  0  0  0  0  0  0  0  0  0  0  # atno 13510 bound_to 8476
  115.6807  249.4456  315.7567 LP  0  0  0  0  0  0  0  0  0  0  0  0  # atno 13511 bound_to 8937
  109.9694  245.8564  320.3334 LP  0  0  0  0  0  0  0  0  0  0  0  0  # atno 13514 bound_to 5543
  110.4792  245.8706  318.6781 LP  0  0  0  0  0  0  0  0  0  0  0  0  # atno 13515 bound_to 5543
  111.2116  251.8172  329.6949 LP  0  0  0  0  0  0  0  0  0  0  0  0  # atno 13516 bound_to 12863
  112.1935  251.5340  328.4212 LP  0  0  0  0  0  0  0  0  0  0  0  0  # atno 13517 bound_to 12863
  106.1198  242.9062  320.8140 LP  0  0  0  0  0  0  0  0  0  0  0  0  # atno 13518 bound_to 5545
  107.4155  243.0245  321.8009 LP  0  0  0  0  0  0  0  0  0  0  0  0  # atno 13519 bound_to 5545
  109.0458  244.4529  318.9207 LP  0  0  0  0  0  0  0  0  0  0  0  0  # atno 13520 bound_to 5565
  112.5222  238.7812  320.9580 LP  0  0  0  0  0  0  0  0  0  0  0  0  # atno 13523 bound_to 8319
  112.5547  237.6653  322.1498 LP  0  0  0  0  0  0  0  0  0  0  0  0  # atno 13524 bound_to 8319
  114.4554  237.8297  329.4567 LP  0  0  0  0  0  0  0  0  0  0  0  0  # atno 13525 bound_to 9180
  114.3040  237.2012  327.8498 LP  0  0  0  0  0  0  0  0  0  0  0  0  # atno 13526 bound_to 9180
  107.0254  243.7788  317.6802 LP  0  0  0  0  0  0  0  0  0  0  0  0  # atno 13529 bound_to 5540
  109.6825  248.1589  317.6923 LP  0  0  0  0  0  0  0  0  0  0  0  0  # atno 13530 bound_to 8500
  108.2369  246.0108  316.7817 LP  0  0  0  0  0  0  0  0  0  0  0  0  # atno 13531 bound_to 5517
  106.7500  246.8676  316.5468 LP  0  0  0  0  0  0  0  0  0  0  0  0  # atno 13532 bound_to 5517
  110.2935  245.5775  317.1596 LP  0  0  0  0  0  0  0  0  0  0  0  0  # atno 13533 bound_to 8481
  110.0672  244.8869  315.6973 LP  0  0  0  0  0  0  0  0  0  0  0  0  # atno 13534 bound_to 8481
  107.4333  252.2923  319.2465 LP  0  0  0  0  0  0  0  0  0  0  0  0  # atno 13535 bound_to 8503
  108.0427  251.8435  320.8044 LP  0  0  0  0  0  0  0  0  0  0  0  0  # atno 13536 bound_to 8503
  110.7164  251.2029  318.4512 LP  0  0  0  0  0  0  0  0  0  0  0  0  # atno 13537 bound_to 8528
  109.1761  241.0204  316.5193 LP  0  0  0  0  0  0  0  0  0  0  0  0  # atno 13538 bound_to 5568
  108.5245  242.5530  316.0435 LP  0  0  0  0  0  0  0  0  0  0  0  0  # atno 13539 bound_to 5568
  109.6221  250.2607  315.8569 LP  0  0  0  0  0  0  0  0  0  0  0  0  # atno 13540 bound_to 8479
  108.8476  248.7582  315.4791 LP  0  0  0  0  0  0  0  0  0  0  0  0  # atno 13541 bound_to 8479
  105.1955  252.9321  321.9376 LP  0  0  0  0  0  0  0  0  0  0  0  0  # atno 13545 bound_to 12894
  103.9729  253.0823  323.1552 LP  0  0  0  0  0  0  0  0  0  0  0  0  # atno 13546 bound_to 12894
  110.2360  254.5767  322.2650 LP  0  0  0  0  0  0  0  0  0  0  0  0  # atno 13547 bound_to 12822
  110.7654  255.9810  321.4004 LP  0  0  0  0  0  0  0  0  0  0  0  0  # atno 13548 bound_to 12822
  110.0968  256.1598  325.2385 LP  0  0  0  0  0  0  0  0  0  0  0  0  # atno 13549 bound_to 12852
  106.7678  254.0505  322.7431 LP  0  0  0  0  0  0  0  0  0  0  0  0  # atno 13550 bound_to 12891

> <Gold.Score>
     Fitness  S(hb_ext) S(vdw_ext)  S(hb_int)    S(int)      intcor
     34.52       6.05      20.92       0.00      -0.30      -0.76

> <Gold.Goldscore.Fitness>
34.5158

> <Gold.Goldscore.Internal.Vdw>
-0.6133

> <Gold.Goldscore.Internal.Torsion>
-0.4471

> <Gold.Goldscore.External.Vdw>
20.9184

> <Gold.Goldscore.Internal.HBond>
0.0000

> <Gold.Goldscore.External.HBond>
6.0486

> <Gold.Goldscore.Internal.Correction>
-0.7650

> <Gold.Goldscore.Hbonds>
donor molecule, donor type, donor heavy atom, donor atom, acceptor molecule, acceptor atom, score
      P1  H  9513  9527       L1    17  1.00
      L1  H    10    23       P1  9073  0.02

> <Gold.Goldscore.Internal.Vdw.Weighted>
-0.6133

> <Gold.Goldscore.Internal.Torsion.Weighted>
-0.4471

> <Gold.Goldscore.External.Vdw.Weighted>
28.7627

> <Gold.Goldscore.Internal.HBond.Weighted>
0.0000

> <Gold.Goldscore.External.HBond.Weighted>
6.0486

> <Gold.Goldscore.Internal.Correction.Weighted>
-0.7650

> <Gold.Rescore>
     Score     S(PLP)   S(hbond)     S(cho)   S(metal)  DE(clash)   DE(tors)     intcor
     11.63     -12.98       0.30       0.00       0.00       0.00       1.13       ----

> <Gold.PLP.Fitness>
11.6280

> <Gold.PLP.PLP>
-12.9813

> <Gold.PLP.part.hbond>
-5.2471

> <Gold.PLP.part.metal>
0.0000

> <Gold.PLP.part.buried>
5.4586

> <Gold.PLP.part.nonpolar>
-17.6026

> <Gold.PLP.part.repulsive>
3.3181

> <Gold.PLP.ligand.clash>
0.0000

> <Gold.PLP.ligand.torsion>
1.1312

> <Gold.PLP.Chemscore.Hbond>
0.3030

> <Gold.PLP.Chemscore.CHOScore>
0.0000

> <Gold.PLP.Chemscore.Metal>
0.0000

> <Gold.Chemscore.Hbonds>
donor molecule, donor type, donor heavy atom, donor atom, acceptor molecule, acceptor atom, score
      P1  H  9513  9527       L1    17  1.00

> <Gold.PLP.Chemscore.Internal.Correction>
   9.000000E+99

