#       Name:                CT1002167954
#       Creating user name   hitesit
#       Creation time:       Sun Apr 16 22:52:08 2023


#       File generated by GOLD software.
#

@<TRIPOS>MOLECULE
CT1002167954|ligand_prepared|mol2|1|dock7
    29    30     1
SMALL
NO_CHARGES


@<TRIPOS>ATOM
      1 C1         111.4034 245.9860 324.8740 C.3            1 RES1               0.0000
      2 C2         112.9395 245.8468 324.8690 C.ar           1 RES1               0.0000
      3 C3         110.9934 246.2598 323.4300 C.2            1 RES1               0.0000
      4 C4         110.8584 244.6787 325.4383 C.2            1 RES1               0.0000
      5 C5         110.8838 247.1422 325.7598 C.3            1 RES1               0.0000
      6 C6         113.7524 246.9577 325.0733 C.ar           1 RES1               0.0000
      7 C7         113.5570 244.6157 324.6645 C.ar           1 RES1               0.0000
      8 N8         110.3956 245.2467 322.7400 N.am           1 RES1               0.0000
      9 O9         111.2268 247.3354 322.8924 O.2            1 RES1               0.0000
     10 N10        110.1223 243.8772 324.6054 N.am           1 RES1               0.0000
     11 O11        111.0737 244.3275 326.5918 O.2            1 RES1               0.0000
     12 C12        109.3858 247.0925 326.0162 C.3            1 RES1               0.0000
     13 C13        115.1325 246.8417 325.0761 C.ar           1 RES1               0.0000
     14 C14        114.9374 244.5020 324.6674 C.ar           1 RES1               0.0000
     15 C15        109.8922 244.0873 323.2730 C.2            1 RES1               0.0000
     16 C16        115.7259 245.6140 324.8736 C.ar           1 RES1               0.0000
     17 O17        109.2663 243.2929 322.5771 O.2            1 RES1               0.0000
     18 H18        111.4081 247.1123 326.7229 H              1 RES1               0.0000
     19 H19        111.1275 248.0956 325.2749 H              1 RES1               0.0000
     20 H20        113.3034 247.9325 325.2320 H              1 RES1               0.0000
     21 H21        112.9566 243.7276 324.4991 H              1 RES1               0.0000
     22 H22        110.3155 245.3617 321.7346 H              1 RES1               0.0000
     23 H23        109.7075 243.0472 325.0167 H              1 RES1               0.0000
     24 H24        109.0738 247.9257 326.6425 H              1 RES1               0.0000
     25 H25        108.8323 247.1457 325.0810 H              1 RES1               0.0000
     26 H26        109.1113 246.1682 326.5204 H              1 RES1               0.0000
     27 H27        115.7487 247.7201 325.2375 H              1 RES1               0.0000
     28 H28        115.4001 243.5338 324.5069 H              1 RES1               0.0000
     29 H29        116.8071 245.5233 324.8761 H              1 RES1               0.0000
@<TRIPOS>BOND
    1    1    2 1     
    2    1    3 1     
    3    1    4 1     
    4    1    5 1     
    5    2    6 ar    
    6    2    7 ar    
    7    3    8 1     
    8    3    9 2     
    9    4   10 1     
   10    4   11 2     
   11    5   12 1     
   12    5   18 1     
   13    5   19 1     
   14    6   13 ar    
   15    6   20 1     
   16    7   14 ar    
   17    7   21 1     
   18    8   15 1     
   19    8   22 1     
   20   10   15 1     
   21   10   23 1     
   22   12   24 1     
   23   12   25 1     
   24   12   26 1     
   25   13   16 ar    
   26   13   27 1     
   27   14   16 ar    
   28   14   28 1     
   29   15   17 2     
   30   16   29 1     
@<TRIPOS>SUBSTRUCTURE
      1 RES1           1
@<TRIPOS>SET
DONOR_HYDROGENS      STATIC     ATOMS    <user>   **** ""
2 22 23
ATOM$RED        STATIC     ATOMS    COLORGROUP SYSTEM
2 22 23
@<TRIPOS>COMMENT
> <Gold.Version>
2022.3.0

> <Gold.Id.Protein>
unknown|5adf_clean|pdb

> <Gold.Protein.RotatedTorsions>
[ 8428 8423 8424 8425 ] final -155.80 input   46.96 | X-H torsion
[ 8452 8445 8446 8447 ] final  174.59 input  111.34 | X-H torsion
[ 8996 8992 8993 8994 ] final  123.47 input   44.62 | X-H torsion
[ 9030 9016 9017 9018 ] final  140.58 input   32.56 | X-H torsion
[ 9074 9062 9063 9064 ] final -113.23 input   99.28 | X-H torsion
[ 9082 9073 9072 9070 ] final  -87.89 input   59.99 | X-H torsion
[ 9108 9100 9101 9102 ] final   76.94 input   89.92 | X-H torsion
[ 9186 9177 9178 9179 ] final  -66.50 input  116.56 | X-H torsion
[ 3596 3592 3593 3594 ] final  106.78 input   84.58 | X-H torsion
[ 8978 8972 8973 8974 ] final -156.85 input   29.23 | X-H torsion
[ 9134 9130 9131 9132 ] final   14.58 input  126.15 | X-H torsion
[ 4890 4885 4884 4881 ] final  -78.35 input   60.00 | X-H torsion
[ 8982 8977 8976 8973 ] final   -2.31 input   60.00 | X-H torsion
[ 3570 3563 3564 3565 ] final  -51.82 input  100.61 | X-H torsion
[ 3548 3542 3543 3544 ] final   38.13 input   82.26 | X-H torsion
[ 8482 8476 8477 8478 ] final  142.76 input   53.28 | X-H torsion
[ 8948 8937 8938 8939 ] final  -90.15 input   48.32 | X-H torsion
[ 12872 12863 12862 12860 ] final  -24.74 input   60.03 | X-H torsion
[ 5550 5545 5544 5541 ] final  112.72 input   60.00 | X-H torsion
[ 5574 5565 5566 5567 ] final  147.98 input   49.17 | X-H torsion
[ 8328 8319 8318 8316 ] final  177.21 input   60.00 | X-H torsion
[ 5546 5540 5541 5542 ] final -140.64 input  103.84 | X-H torsion
[ 8508 8500 8501 8502 ] final  -78.74 input   63.30 | X-H torsion
[ 8486 8481 8480 8477 ] final   89.35 input   60.02 | X-H torsion
[ 8536 8528 8529 8530 ] final -111.23 input   88.08 | X-H torsion
[ 12864 12852 12853 12854 ] final -116.33 input  106.44 | X-H torsion
[ 12900 12891 12892 12893 ] final -142.70 input   37.87 | X-H torsion
[ 9214 9206 9207 9208 ] final   -0.18 input   89.32 | X-H torsion
[ 11050 11043 11044 11045 ] final   67.39 input   52.80 | X-H torsion
[ 5606 5598 5599 5600 ] final   34.75 input  119.27 | X-H torsion
[ 8570 8562 8563 8564 ] final -119.63 input   68.50 | X-H torsion
[ 13460 8400 8399 8398 ] final  -52.08 input   -0.00 | X-H torsion
[ 13464 8940 8939 8938 ] final -135.04 input   -0.00 | X-H torsion
[ 13467 8995 8994 8993 ] final   67.77 input    0.00 | X-H torsion
[ 13470 9019 9018 9017 ] final    2.94 input    0.00 | X-H torsion
[ 13473 9065 9064 9063 ] final  100.08 input   -0.00 | X-H torsion
[ 13478 9103 9102 9101 ] final   98.71 input   -0.00 | X-H torsion
[ 13491 8975 8974 8973 ] final -150.99 input    0.00 | X-H torsion
[ 13493 8345 8344 8343 ] final  171.98 input    0.00 | X-H torsion
[ 13501 8448 8447 8446 ] final -137.16 input    0.00 | X-H torsion
[ 13503 3502 3501 3500 ] final  117.37 input    0.00 | X-H torsion
[ 13506 8426 8425 8424 ] final   68.03 input    0.00 | X-H torsion
[ 13514 5543 5542 5541 ] final   71.93 input   -0.00 | X-H torsion
[ 13525 9180 9179 9178 ] final -136.12 input    0.00 | X-H torsion
[ 13531 5517 5516 5515 ] final   53.65 input    0.00 | X-H torsion
[ 13535 8503 8502 8501 ] final   60.52 input   -0.00 | X-H torsion
[ 13538 5568 5567 5566 ] final -150.09 input   -0.00 | X-H torsion
[ 13540 8479 8478 8477 ] final  -17.73 input   -0.00 | X-H torsion
[ 13545 12894 12893 12892 ] final  -46.04 input    0.00 | X-H torsion
[ 13547 12822 12821 12820 ] final -174.68 input   -0.00 | X-H torsion

> <Gold.Protein.ActiveResidues>
 TRP311  MET341  HIS342  TRP414  ALA417  ARG419  CYS420  VAL421  GLY422  LEU460 
 SER462  ASN481  SER482  GLN483  LEU484  ARG486  ALA502  ASN503  TRP566  TYR567 
 GLY568  LEU569  PRO570  ALA571  VAL572  SER573  ASN574  MET575  LEU576  PHE589 
 SER590  GLY591  TRP592  TYR593  MET594  GLY595  GLU597  ILE598  ARG601  ASP602 
 ARG608  ILE653  VAL654  TRP683  PHE709  GLU710  TYR711  GLN712  ASP714  HEM750 
 H4B760 

> <Gold.Protein.RotatedAtoms>
  121.0310  251.8712  329.4307 H   0  0  0  0  0  0  0  0  0  0  0  0  # atno 3548 bound_to 3542
  122.7537  249.2462  328.6277 H   0  0  0  0  0  0  0  0  0  0  0  0  # atno 3570 bound_to 3563
  123.6212  247.6930  327.3527 H   0  0  0  0  0  0  0  0  0  0  0  0  # atno 3596 bound_to 3592
  124.5230  245.9679  318.6688 H   0  0  0  0  0  0  0  0  0  0  0  0  # atno 4890 bound_to 4885
  105.8677  244.9980  317.9205 H   0  0  0  0  0  0  0  0  0  0  0  0  # atno 5546 bound_to 5540
  107.7545  243.0017  321.5523 H   0  0  0  0  0  0  0  0  0  0  0  0  # atno 5550 bound_to 5545
  109.0821  243.4811  319.5998 H   0  0  0  0  0  0  0  0  0  0  0  0  # atno 5574 bound_to 5565
  111.7866  242.0534  316.5702 H   0  0  0  0  0  0  0  0  0  0  0  0  # atno 5606 bound_to 5598
  112.8169  238.6711  321.2836 H   0  0  0  0  0  0  0  0  0  0  0  0  # atno 8328 bound_to 8319
  116.7175  242.0561  318.4455 H   0  0  0  0  0  0  0  0  0  0  0  0  # atno 8428 bound_to 8423
  115.1166  244.7817  319.3744 H   0  0  0  0  0  0  0  0  0  0  0  0  # atno 8452 bound_to 8445
  112.0264  246.1203  317.7665 H   0  0  0  0  0  0  0  0  0  0  0  0  # atno 8482 bound_to 8476
  109.0285  246.0077  316.1971 H   0  0  0  0  0  0  0  0  0  0  0  0  # atno 8486 bound_to 8481
  110.3886  249.2078  317.4345 H   0  0  0  0  0  0  0  0  0  0  0  0  # atno 8508 bound_to 8500
  109.3654  251.0572  319.5081 H   0  0  0  0  0  0  0  0  0  0  0  0  # atno 8536 bound_to 8528
  110.5317  254.2168  319.0116 H   0  0  0  0  0  0  0  0  0  0  0  0  # atno 8570 bound_to 8562
  115.7677  248.2093  314.8166 H   0  0  0  0  0  0  0  0  0  0  0  0  # atno 8948 bound_to 8937
  118.0885  246.9285  316.6004 H   0  0  0  0  0  0  0  0  0  0  0  0  # atno 8978 bound_to 8972
  120.6419  245.0110  315.1724 H   0  0  0  0  0  0  0  0  0  0  0  0  # atno 8982 bound_to 8977
  120.4850  245.0128  319.1056 H   0  0  0  0  0  0  0  0  0  0  0  0  # atno 8996 bound_to 8992
  123.6237  242.6277  319.8825 H   0  0  0  0  0  0  0  0  0  0  0  0  # atno 9030 bound_to 9016
  121.8560  240.3347  322.1183 H   0  0  0  0  0  0  0  0  0  0  0  0  # atno 9074 bound_to 9062
  114.7618  237.2743  322.8355 H   0  0  0  0  0  0  0  0  0  0  0  0  # atno 9082 bound_to 9073
  121.0551  240.2096  326.1778 H   0  0  0  0  0  0  0  0  0  0  0  0  # atno 9108 bound_to 9100
  122.0807  237.8637  328.9863 H   0  0  0  0  0  0  0  0  0  0  0  0  # atno 9134 bound_to 9130
  118.0945  237.4939  330.5096 H   0  0  0  0  0  0  0  0  0  0  0  0  # atno 9186 bound_to 9177
  116.9974  236.3815  329.1097 H   0  0  0  0  0  0  0  0  0  0  0  0  # atno 9214 bound_to 9206
  125.2783  238.0140  325.5067 H   0  0  0  0  0  0  0  0  0  0  0  0  # atno 11050 bound_to 11043
  110.6334  255.6725  323.9462 H   0  0  0  0  0  0  0  0  0  0  0  0  # atno 12864 bound_to 12852
  111.0397  250.5367  328.5781 H   0  0  0  0  0  0  0  0  0  0  0  0  # atno 12872 bound_to 12863
  107.3117  255.6609  323.1327 H   0  0  0  0  0  0  0  0  0  0  0  0  # atno 12900 bound_to 12891
  118.4797  243.1448  319.5850 LP  0  0  0  0  0  0  0  0  0  0  0  0  # atno 13460 bound_to 8400
  118.2617  243.2100  317.8679 LP  0  0  0  0  0  0  0  0  0  0  0  0  # atno 13461 bound_to 8400
  114.9989  242.0960  318.7532 LP  0  0  0  0  0  0  0  0  0  0  0  0  # atno 13462 bound_to 8423
  114.9117  245.4312  317.7641 LP  0  0  0  0  0  0  0  0  0  0  0  0  # atno 13463 bound_to 8445
  117.0926  246.1269  318.2119 LP  0  0  0  0  0  0  0  0  0  0  0  0  # atno 13464 bound_to 8940
  116.0116  246.4187  316.8904 LP  0  0  0  0  0  0  0  0  0  0  0  0  # atno 13465 bound_to 8940
  120.7493  243.9520  317.7396 LP  0  0  0  0  0  0  0  0  0  0  0  0  # atno 13466 bound_to 8992
  123.1561  241.8816  317.5345 LP  0  0  0  0  0  0  0  0  0  0  0  0  # atno 13467 bound_to 8995
  121.7124  241.2414  318.2456 LP  0  0  0  0  0  0  0  0  0  0  0  0  # atno 13468 bound_to 8995
  122.1433  242.8427  320.7825 LP  0  0  0  0  0  0  0  0  0  0  0  0  # atno 13469 bound_to 9016
  122.5170  242.5910  322.5485 LP  0  0  0  0  0  0  0  0  0  0  0  0  # atno 13470 bound_to 9019
  122.0455  241.5919  323.8824 LP  0  0  0  0  0  0  0  0  0  0  0  0  # atno 13471 bound_to 9019
  122.6785  238.7945  322.2182 LP  0  0  0  0  0  0  0  0  0  0  0  0  # atno 13472 bound_to 9062
  124.3208  239.4007  324.8004 LP  0  0  0  0  0  0  0  0  0  0  0  0  # atno 13473 bound_to 9065
  123.7119  237.7859  324.9473 LP  0  0  0  0  0  0  0  0  0  0  0  0  # atno 13474 bound_to 9065
  115.1519  238.0109  321.4377 LP  0  0  0  0  0  0  0  0  0  0  0  0  # atno 13475 bound_to 9073
  114.8032  238.8995  322.7626 LP  0  0  0  0  0  0  0  0  0  0  0  0  # atno 13476 bound_to 9073
  122.4223  239.4863  325.3611 LP  0  0  0  0  0  0  0  0  0  0  0  0  # atno 13477 bound_to 9100
  120.0414  237.6781  326.9776 LP  0  0  0  0  0  0  0  0  0  0  0  0  # atno 13478 bound_to 9103
  119.8681  238.5893  328.4403 LP  0  0  0  0  0  0  0  0  0  0  0  0  # atno 13479 bound_to 9103
  119.0786  238.0510  329.1821 LP  0  0  0  0  0  0  0  0  0  0  0  0  # atno 13480 bound_to 9177
  124.9981  248.0379  328.3690 LP  0  0  0  0  0  0  0  0  0  0  0  0  # atno 13489 bound_to 3592
  119.7780  247.1951  316.2474 LP  0  0  0  0  0  0  0  0  0  0  0  0  # atno 13490 bound_to 8972
  122.6216  245.6334  316.9966 LP  0  0  0  0  0  0  0  0  0  0  0  0  # atno 13491 bound_to 8975
  121.4143  246.8292  316.6609 LP  0  0  0  0  0  0  0  0  0  0  0  0  # atno 13492 bound_to 8975
  120.4278  237.8592  318.7914 LP  0  0  0  0  0  0  0  0  0  0  0  0  # atno 13493 bound_to 8345
  120.8987  236.3676  319.5353 LP  0  0  0  0  0  0  0  0  0  0  0  0  # atno 13494 bound_to 8345
  123.0107  237.1588  327.6837 LP  0  0  0  0  0  0  0  0  0  0  0  0  # atno 13495 bound_to 9130
  125.9927  246.6442  318.8474 LP  0  0  0  0  0  0  0  0  0  0  0  0  # atno 13496 bound_to 4885
  125.8256  245.2603  317.9967 LP  0  0  0  0  0  0  0  0  0  0  0  0  # atno 13497 bound_to 4885
  119.5286  244.3766  314.1696 LP  0  0  0  0  0  0  0  0  0  0  0  0  # atno 13498 bound_to 8977
  120.5309  243.3962  315.0068 LP  0  0  0  0  0  0  0  0  0  0  0  0  # atno 13499 bound_to 8977
  121.8891  248.0494  329.5665 LP  0  0  0  0  0  0  0  0  0  0  0  0  # atno 13500 bound_to 3563
  113.5946  248.7962  317.3012 LP  0  0  0  0  0  0  0  0  0  0  0  0  # atno 13501 bound_to 8448
  114.7302  247.4906  317.2246 LP  0  0  0  0  0  0  0  0  0  0  0  0  # atno 13502 bound_to 8448
  119.0549  248.9337  329.6513 LP  0  0  0  0  0  0  0  0  0  0  0  0  # atno 13503 bound_to 3502
  119.5421  249.3325  331.2649 LP  0  0  0  0  0  0  0  0  0  0  0  0  # atno 13504 bound_to 3502
  119.5172  251.0326  329.1942 LP  0  0  0  0  0  0  0  0  0  0  0  0  # atno 13505 bound_to 3542
  112.8826  243.3761  317.4118 LP  0  0  0  0  0  0  0  0  0  0  0  0  # atno 13506 bound_to 8426
  112.9838  244.9187  316.6306 LP  0  0  0  0  0  0  0  0  0  0  0  0  # atno 13507 bound_to 8426
  111.8147  247.5791  318.7012 LP  0  0  0  0  0  0  0  0  0  0  0  0  # atno 13510 bound_to 8476
  115.5149  248.9761  316.3660 LP  0  0  0  0  0  0  0  0  0  0  0  0  # atno 13511 bound_to 8937
  110.0829  245.7262  320.3490 LP  0  0  0  0  0  0  0  0  0  0  0  0  # atno 13514 bound_to 5543
  110.3657  246.0008  318.6625 LP  0  0  0  0  0  0  0  0  0  0  0  0  # atno 13515 bound_to 5543
  111.0800  251.7028  329.7126 LP  0  0  0  0  0  0  0  0  0  0  0  0  # atno 13516 bound_to 12863
  112.2112  251.6656  328.5355 LP  0  0  0  0  0  0  0  0  0  0  0  0  # atno 13517 bound_to 12863
  107.2441  242.8276  320.0170 LP  0  0  0  0  0  0  0  0  0  0  0  0  # atno 13518 bound_to 5545
  106.1599  242.9523  321.2318 LP  0  0  0  0  0  0  0  0  0  0  0  0  # atno 13519 bound_to 5545
  108.4907  243.8038  317.9853 LP  0  0  0  0  0  0  0  0  0  0  0  0  # atno 13520 bound_to 5565
  112.1668  237.4315  322.1137 LP  0  0  0  0  0  0  0  0  0  0  0  0  # atno 13523 bound_to 8319
  111.3630  238.0825  320.8501 LP  0  0  0  0  0  0  0  0  0  0  0  0  # atno 13524 bound_to 8319
  114.3327  236.7216  328.9961 LP  0  0  0  0  0  0  0  0  0  0  0  0  # atno 13525 bound_to 9180
  114.4267  238.3094  328.3104 LP  0  0  0  0  0  0  0  0  0  0  0  0  # atno 13526 bound_to 9180
  106.8454  243.5524  317.9562 LP  0  0  0  0  0  0  0  0  0  0  0  0  # atno 13529 bound_to 5540
  110.0215  248.2001  318.8083 LP  0  0  0  0  0  0  0  0  0  0  0  0  # atno 13530 bound_to 8500
  106.7721  246.7945  316.3427 LP  0  0  0  0  0  0  0  0  0  0  0  0  # atno 13531 bound_to 5517
  108.2148  246.0838  316.9859 LP  0  0  0  0  0  0  0  0  0  0  0  0  # atno 13532 bound_to 5517
  110.2681  245.6048  317.1717 LP  0  0  0  0  0  0  0  0  0  0  0  0  # atno 13533 bound_to 8481
  110.0973  244.8767  315.7201 LP  0  0  0  0  0  0  0  0  0  0  0  0  # atno 13534 bound_to 8481
  107.5537  251.4022  320.5479 LP  0  0  0  0  0  0  0  0  0  0  0  0  # atno 13535 bound_to 8503
  107.9223  252.7335  319.5030 LP  0  0  0  0  0  0  0  0  0  0  0  0  # atno 13536 bound_to 8503
  110.8744  251.0638  318.6335 LP  0  0  0  0  0  0  0  0  0  0  0  0  # atno 13537 bound_to 8528
  109.2668  241.2473  315.7469 LP  0  0  0  0  0  0  0  0  0  0  0  0  # atno 13538 bound_to 5568
  108.4338  242.3261  316.8158 LP  0  0  0  0  0  0  0  0  0  0  0  0  # atno 13539 bound_to 5568
  109.8804  249.3132  315.1252 LP  0  0  0  0  0  0  0  0  0  0  0  0  # atno 13540 bound_to 8479
  108.5892  249.7057  316.2109 LP  0  0  0  0  0  0  0  0  0  0  0  0  # atno 13541 bound_to 8479
  105.2205  252.9425  321.9625 LP  0  0  0  0  0  0  0  0  0  0  0  0  # atno 13545 bound_to 12894
  103.9479  253.0718  323.1303 LP  0  0  0  0  0  0  0  0  0  0  0  0  # atno 13546 bound_to 12894
  109.7741  254.8929  322.1032 LP  0  0  0  0  0  0  0  0  0  0  0  0  # atno 13547 bound_to 12822
  111.2273  255.6648  321.5622 LP  0  0  0  0  0  0  0  0  0  0  0  0  # atno 13548 bound_to 12822
  109.6585  256.8381  324.8077 LP  0  0  0  0  0  0  0  0  0  0  0  0  # atno 13549 bound_to 12852
  106.8306  254.0532  322.6438 LP  0  0  0  0  0  0  0  0  0  0  0  0  # atno 13550 bound_to 12891

> <Gold.Score>
     Fitness  S(hb_ext) S(vdw_ext)  S(hb_int)    S(int)      intcor
     31.53       3.13      21.08       0.00      -0.59      -0.76

> <Gold.Goldscore.Fitness>
31.5274

> <Gold.Goldscore.Internal.Vdw>
-0.7313

> <Gold.Goldscore.Internal.Torsion>
-0.6217

> <Gold.Goldscore.External.Vdw>
21.0804

> <Gold.Goldscore.Internal.HBond>
0.0000

> <Gold.Goldscore.External.HBond>
3.1299

> <Gold.Goldscore.Internal.Correction>
-0.7650

> <Gold.Goldscore.Hbonds>
donor molecule, donor type, donor heavy atom, donor atom, acceptor molecule, acceptor atom, score
      P1  H  5545  5550       L1    17  0.37
      P1  H  5565  5574       L1    17  0.28
      L1  H     8    22       P1  5543  0.91

> <Gold.Goldscore.Internal.Vdw.Weighted>
-0.7313

> <Gold.Goldscore.Internal.Torsion.Weighted>
-0.6217

> <Gold.Goldscore.External.Vdw.Weighted>
28.9856

> <Gold.Goldscore.Internal.HBond.Weighted>
0.0000

> <Gold.Goldscore.External.HBond.Weighted>
3.1299

> <Gold.Goldscore.Internal.Correction.Weighted>
-0.7650

> <Gold.Rescore>
     Score     S(PLP)   S(hbond)     S(cho)   S(metal)  DE(clash)   DE(tors)     intcor
     29.72     -29.19       0.91       0.00       0.00       0.00       1.10       ----

> <Gold.PLP.Fitness>
29.7246

> <Gold.PLP.PLP>
-29.1878

> <Gold.PLP.part.hbond>
-2.0000

> <Gold.PLP.part.metal>
0.0000

> <Gold.PLP.part.buried>
-1.1419

> <Gold.PLP.part.nonpolar>
-28.1256

> <Gold.PLP.part.repulsive>
0.7209

> <Gold.PLP.ligand.clash>
0.0000

> <Gold.PLP.ligand.torsion>
1.0966

> <Gold.PLP.Chemscore.Hbond>
0.9100

> <Gold.PLP.Chemscore.CHOScore>
0.0000

> <Gold.PLP.Chemscore.Metal>
0.0000

> <Gold.Chemscore.Hbonds>
donor molecule, donor type, donor heavy atom, donor atom, acceptor molecule, acceptor atom, score
      L1  H     8    22       P1  5543  0.28
      P1  H  5545  5550       L1    17  1.00

> <Gold.PLP.Chemscore.Internal.Correction>
   9.000000E+99

