#       Name:                CT1002167954
#       Creating user name   hitesit
#       Creation time:       Sun Apr 16 22:52:08 2023


#       File generated by GOLD software.
#

@<TRIPOS>MOLECULE
CT1002167954|ligand_prepared|mol2|1|dock8
    29    30     1
SMALL
NO_CHARGES


@<TRIPOS>ATOM
      1 C1         111.4856 246.0975 324.9783 C.3            1 RES1               0.0000
      2 C2         112.8777 245.4742 324.7495 C.ar           1 RES1               0.0000
      3 C3         111.6770 247.2078 326.0073 C.2            1 RES1               0.0000
      4 C4         111.0084 246.5876 323.6157 C.2            1 RES1               0.0000
      5 C5         110.4361 245.1000 325.5216 C.3            1 RES1               0.0000
      6 C6         113.0060 244.2347 324.1300 C.ar           1 RES1               0.0000
      7 C7         114.0408 246.1269 325.1494 C.ar           1 RES1               0.0000
      8 N8         111.6251 248.4963 325.5635 N.am           1 RES1               0.0000
      9 O9         111.9094 246.9561 327.1832 O.2            1 RES1               0.0000
     10 N10        110.8543 247.9374 323.4367 N.am           1 RES1               0.0000
     11 O11        110.7805 245.8182 322.6902 O.2            1 RES1               0.0000
     12 C12        109.0793 245.7280 325.7991 C.3            1 RES1               0.0000
     13 C13        114.2521 243.6694 323.9152 C.ar           1 RES1               0.0000
     14 C14        115.2859 245.5597 324.9339 C.ar           1 RES1               0.0000
     15 C15        111.1704 248.9160 324.3392 C.2            1 RES1               0.0000
     16 C16        115.3927 244.3316 324.3166 C.ar           1 RES1               0.0000
     17 O17        111.0554 250.1116 324.0852 O.2            1 RES1               0.0000
     18 H18        110.3080 244.2903 324.7926 H              1 RES1               0.0000
     19 H19        110.8170 244.6577 326.4504 H              1 RES1               0.0000
     20 H20        112.1195 243.6977 323.8095 H              1 RES1               0.0000
     21 H21        113.9808 247.0935 325.6379 H              1 RES1               0.0000
     22 H22        111.9549 249.2142 326.2008 H              1 RES1               0.0000
     23 H23        110.4679 248.2407 322.5484 H              1 RES1               0.0000
     24 H24        108.3807 244.9851 326.1782 H              1 RES1               0.0000
     25 H25        109.1654 246.5210 326.5391 H              1 RES1               0.0000
     26 H26        108.6594 246.1558 324.8911 H              1 RES1               0.0000
     27 H27        114.3307 242.7021 323.4302 H              1 RES1               0.0000
     28 H28        116.1809 246.0841 325.2520 H              1 RES1               0.0000
     29 H29        116.3688 243.8887 324.1479 H              1 RES1               0.0000
@<TRIPOS>BOND
    1    1    2 1     
    2    1    3 1     
    3    1    4 1     
    4    1    5 1     
    5    2    6 ar    
    6    2    7 ar    
    7    3    8 1     
    8    3    9 2     
    9    4   10 1     
   10    4   11 2     
   11    5   12 1     
   12    5   18 1     
   13    5   19 1     
   14    6   13 ar    
   15    6   20 1     
   16    7   14 ar    
   17    7   21 1     
   18    8   15 1     
   19    8   22 1     
   20   10   15 1     
   21   10   23 1     
   22   12   24 1     
   23   12   25 1     
   24   12   26 1     
   25   13   16 ar    
   26   13   27 1     
   27   14   16 ar    
   28   14   28 1     
   29   15   17 2     
   30   16   29 1     
@<TRIPOS>SUBSTRUCTURE
      1 RES1           1
@<TRIPOS>SET
DONOR_HYDROGENS      STATIC     ATOMS    <user>   **** ""
2 22 23
ATOM$RED        STATIC     ATOMS    COLORGROUP SYSTEM
2 22 23
@<TRIPOS>COMMENT
> <Gold.Version>
2022.3.0

> <Gold.Id.Protein>
unknown|5adf_clean|pdb

> <Gold.Protein.RotatedTorsions>
[ 8428 8423 8424 8425 ] final   -1.72 input   46.96 | X-H torsion
[ 8452 8445 8446 8447 ] final   -6.17 input  111.34 | X-H torsion
[ 8996 8992 8993 8994 ] final  127.09 input   44.62 | X-H torsion
[ 9030 9016 9017 9018 ] final  -12.10 input   32.56 | X-H torsion
[ 9074 9062 9063 9064 ] final   82.96 input   99.28 | X-H torsion
[ 9082 9073 9072 9070 ] final  154.68 input   59.99 | X-H torsion
[ 9108 9100 9101 9102 ] final   42.33 input   89.92 | X-H torsion
[ 9186 9177 9178 9179 ] final  171.71 input  116.56 | X-H torsion
[ 3596 3592 3593 3594 ] final  -81.19 input   84.58 | X-H torsion
[ 8978 8972 8973 8974 ] final   65.15 input   29.23 | X-H torsion
[ 9134 9130 9131 9132 ] final   34.91 input  126.15 | X-H torsion
[ 4890 4885 4884 4881 ] final  129.20 input   60.00 | X-H torsion
[ 8982 8977 8976 8973 ] final -161.62 input   60.00 | X-H torsion
[ 3570 3563 3564 3565 ] final  117.48 input  100.61 | X-H torsion
[ 3548 3542 3543 3544 ] final  -38.85 input   82.26 | X-H torsion
[ 8482 8476 8477 8478 ] final   93.57 input   53.28 | X-H torsion
[ 8948 8937 8938 8939 ] final -145.81 input   48.32 | X-H torsion
[ 12872 12863 12862 12860 ] final  -24.50 input   60.03 | X-H torsion
[ 5550 5545 5544 5541 ] final  132.94 input   60.00 | X-H torsion
[ 5574 5565 5566 5567 ] final   58.68 input   49.17 | X-H torsion
[ 8328 8319 8318 8316 ] final  -45.70 input   60.00 | X-H torsion
[ 5546 5540 5541 5542 ] final -129.44 input  103.84 | X-H torsion
[ 8508 8500 8501 8502 ] final  113.94 input   63.30 | X-H torsion
[ 8486 8481 8480 8477 ] final  133.95 input   60.02 | X-H torsion
[ 8536 8528 8529 8530 ] final  115.50 input   88.08 | X-H torsion
[ 12864 12852 12853 12854 ] final   26.43 input  106.44 | X-H torsion
[ 12900 12891 12892 12893 ] final  133.36 input   37.87 | X-H torsion
[ 9214 9206 9207 9208 ] final  -71.33 input   89.32 | X-H torsion
[ 11050 11043 11044 11045 ] final   69.55 input   52.80 | X-H torsion
[ 5606 5598 5599 5600 ] final  -96.12 input  119.27 | X-H torsion
[ 8570 8562 8563 8564 ] final   46.04 input   68.50 | X-H torsion
[ 13460 8400 8399 8398 ] final  -45.33 input   -0.00 | X-H torsion
[ 13464 8940 8939 8938 ] final  -83.72 input   -0.00 | X-H torsion
[ 13467 8995 8994 8993 ] final   72.28 input    0.00 | X-H torsion
[ 13470 9019 9018 9017 ] final -158.82 input    0.00 | X-H torsion
[ 13473 9065 9064 9063 ] final  -91.13 input   -0.00 | X-H torsion
[ 13478 9103 9102 9101 ] final  -84.57 input   -0.00 | X-H torsion
[ 13491 8975 8974 8973 ] final   86.05 input    0.00 | X-H torsion
[ 13493 8345 8344 8343 ] final   59.41 input    0.00 | X-H torsion
[ 13501 8448 8447 8446 ] final   33.58 input    0.00 | X-H torsion
[ 13503 3502 3501 3500 ] final -167.62 input    0.00 | X-H torsion
[ 13506 8426 8425 8424 ] final   18.33 input    0.00 | X-H torsion
[ 13514 5543 5542 5541 ] final  -25.23 input   -0.00 | X-H torsion
[ 13525 9180 9179 9178 ] final -129.23 input    0.00 | X-H torsion
[ 13531 5517 5516 5515 ] final  -53.65 input    0.00 | X-H torsion
[ 13535 8503 8502 8501 ] final -113.71 input   -0.00 | X-H torsion
[ 13538 5568 5567 5566 ] final -156.52 input   -0.00 | X-H torsion
[ 13540 8479 8478 8477 ] final  -59.05 input   -0.00 | X-H torsion
[ 13545 12894 12893 12892 ] final  104.75 input    0.00 | X-H torsion
[ 13547 12822 12821 12820 ] final -173.37 input   -0.00 | X-H torsion

> <Gold.Protein.ActiveResidues>
 TRP311  MET341  HIS342  TRP414  ALA417  ARG419  CYS420  VAL421  GLY422  LEU460 
 SER462  ASN481  SER482  GLN483  LEU484  ARG486  ALA502  ASN503  TRP566  TYR567 
 GLY568  LEU569  PRO570  ALA571  VAL572  SER573  ASN574  MET575  LEU576  PHE589 
 SER590  GLY591  TRP592  TYR593  MET594  GLY595  GLU597  ILE598  ARG601  ASP602 
 ARG608  ILE653  VAL654  TRP683  PHE709  GLU710  TYR711  GLN712  ASP714  HEM750 
 H4B760 

> <Gold.Protein.RotatedAtoms>
  120.5706  251.1003  330.0629 H   0  0  0  0  0  0  0  0  0  0  0  0  # atno 3548 bound_to 3542
  121.9143  247.9274  329.4561 H   0  0  0  0  0  0  0  0  0  0  0  0  # atno 3570 bound_to 3563
  124.9992  247.9251  328.4166 H   0  0  0  0  0  0  0  0  0  0  0  0  # atno 3596 bound_to 3592
  126.3064  246.3173  318.5819 H   0  0  0  0  0  0  0  0  0  0  0  0  # atno 4890 bound_to 4885
  105.9789  245.0500  317.8002 H   0  0  0  0  0  0  0  0  0  0  0  0  # atno 5546 bound_to 5540
  107.4965  243.0219  321.7549 H   0  0  0  0  0  0  0  0  0  0  0  0  # atno 5550 bound_to 5545
  108.5364  242.7943  318.7121 H   0  0  0  0  0  0  0  0  0  0  0  0  # atno 5574 bound_to 5565
  110.5682  243.0537  316.2638 H   0  0  0  0  0  0  0  0  0  0  0  0  # atno 5606 bound_to 5598
  111.2919  237.8705  321.0174 H   0  0  0  0  0  0  0  0  0  0  0  0  # atno 8328 bound_to 8319
  115.1281  242.3271  319.0424 H   0  0  0  0  0  0  0  0  0  0  0  0  # atno 8428 bound_to 8423
  114.8936  245.4368  317.7438 H   0  0  0  0  0  0  0  0  0  0  0  0  # atno 8452 bound_to 8445
  111.3731  246.1820  318.0913 H   0  0  0  0  0  0  0  0  0  0  0  0  # atno 8482 bound_to 8476
  109.1811  245.5678  315.6599 H   0  0  0  0  0  0  0  0  0  0  0  0  # atno 8486 bound_to 8481
  109.9283  248.0873  318.6818 H   0  0  0  0  0  0  0  0  0  0  0  0  # atno 8508 bound_to 8500
  110.9188  250.7305  319.2381 H   0  0  0  0  0  0  0  0  0  0  0  0  # atno 8536 bound_to 8528
  111.0021  255.1740  320.4076 H   0  0  0  0  0  0  0  0  0  0  0  0  # atno 8570 bound_to 8562
  115.8318  249.0305  314.8547 H   0  0  0  0  0  0  0  0  0  0  0  0  # atno 8948 bound_to 8937
  119.5008  246.9273  315.7539 H   0  0  0  0  0  0  0  0  0  0  0  0  # atno 8978 bound_to 8972
  119.6487  243.7618  314.2535 H   0  0  0  0  0  0  0  0  0  0  0  0  # atno 8982 bound_to 8977
  120.5035  245.0553  319.0740 H   0  0  0  0  0  0  0  0  0  0  0  0  # atno 8996 bound_to 8992
  122.4282  242.9089  321.0734 H   0  0  0  0  0  0  0  0  0  0  0  0  # atno 9030 bound_to 9016
  122.4767  238.6919  322.1172 H   0  0  0  0  0  0  0  0  0  0  0  0  # atno 9074 bound_to 9062
  115.1517  237.9694  321.4475 H   0  0  0  0  0  0  0  0  0  0  0  0  # atno 9082 bound_to 9073
  120.9329  239.7046  326.0841 H   0  0  0  0  0  0  0  0  0  0  0  0  # atno 9108 bound_to 9100
  122.3304  237.7625  329.1453 H   0  0  0  0  0  0  0  0  0  0  0  0  # atno 9134 bound_to 9130
  118.9625  238.5676  329.8449 H   0  0  0  0  0  0  0  0  0  0  0  0  # atno 9186 bound_to 9177
  116.2301  236.9555  328.7125 H   0  0  0  0  0  0  0  0  0  0  0  0  # atno 9214 bound_to 9206
  125.2941  238.0355  325.4868 H   0  0  0  0  0  0  0  0  0  0  0  0  # atno 11050 bound_to 11043
  109.6314  256.9733  324.2670 H   0  0  0  0  0  0  0  0  0  0  0  0  # atno 12864 bound_to 12852
  111.0424  250.5366  328.5754 H   0  0  0  0  0  0  0  0  0  0  0  0  # atno 12872 bound_to 12863
  107.5791  255.0098  322.1815 H   0  0  0  0  0  0  0  0  0  0  0  0  # atno 12900 bound_to 12891
  118.5371  243.0621  319.5685 LP  0  0  0  0  0  0  0  0  0  0  0  0  # atno 13460 bound_to 8400
  118.2044  243.2927  317.8844 LP  0  0  0  0  0  0  0  0  0  0  0  0  # atno 13461 bound_to 8400
  116.5561  241.8305  318.1683 LP  0  0  0  0  0  0  0  0  0  0  0  0  # atno 13462 bound_to 8423
  115.1288  244.7932  319.3522 LP  0  0  0  0  0  0  0  0  0  0  0  0  # atno 13463 bound_to 8445
  116.7012  246.7658  318.2473 LP  0  0  0  0  0  0  0  0  0  0  0  0  # atno 13464 bound_to 8940
  116.4030  245.7798  316.8549 LP  0  0  0  0  0  0  0  0  0  0  0  0  # atno 13465 bound_to 8940
  120.7313  243.9108  317.7703 LP  0  0  0  0  0  0  0  0  0  0  0  0  # atno 13466 bound_to 8992
  123.1909  241.8343  317.5691 LP  0  0  0  0  0  0  0  0  0  0  0  0  # atno 13467 bound_to 8995
  121.6776  241.2887  318.2110 LP  0  0  0  0  0  0  0  0  0  0  0  0  # atno 13468 bound_to 8995
  123.3188  242.5663  319.6116 LP  0  0  0  0  0  0  0  0  0  0  0  0  # atno 13469 bound_to 9016
  122.3177  241.5862  323.9179 LP  0  0  0  0  0  0  0  0  0  0  0  0  # atno 13470 bound_to 9019
  122.2448  242.5967  322.5130 LP  0  0  0  0  0  0  0  0  0  0  0  0  # atno 13471 bound_to 9019
  122.0753  240.3910  322.2192 LP  0  0  0  0  0  0  0  0  0  0  0  0  # atno 13472 bound_to 9062
  123.7401  237.8079  325.1125 LP  0  0  0  0  0  0  0  0  0  0  0  0  # atno 13473 bound_to 9065
  124.2925  239.3786  324.6351 LP  0  0  0  0  0  0  0  0  0  0  0  0  # atno 13474 bound_to 9065
  114.8135  238.9179  322.7258 LP  0  0  0  0  0  0  0  0  0  0  0  0  # atno 13475 bound_to 9073
  114.7491  237.2928  322.8717 LP  0  0  0  0  0  0  0  0  0  0  0  0  # atno 13476 bound_to 9073
  122.5410  239.9765  325.4521 LP  0  0  0  0  0  0  0  0  0  0  0  0  # atno 13477 bound_to 9100
  119.8648  238.5465  328.4649 LP  0  0  0  0  0  0  0  0  0  0  0  0  # atno 13478 bound_to 9103
  120.0447  237.7208  326.9530 LP  0  0  0  0  0  0  0  0  0  0  0  0  # atno 13479 bound_to 9103
  118.2205  236.9895  329.8392 LP  0  0  0  0  0  0  0  0  0  0  0  0  # atno 13480 bound_to 9177
  123.6433  247.8097  327.3230 LP  0  0  0  0  0  0  0  0  0  0  0  0  # atno 13489 bound_to 3592
  118.3933  247.1962  317.0774 LP  0  0  0  0  0  0  0  0  0  0  0  0  # atno 13490 bound_to 8972
  121.8264  246.8740  317.3767 LP  0  0  0  0  0  0  0  0  0  0  0  0  # atno 13491 bound_to 8975
  122.2095  245.5886  316.2809 LP  0  0  0  0  0  0  0  0  0  0  0  0  # atno 13492 bound_to 8975
  121.2946  236.7101  318.7289 LP  0  0  0  0  0  0  0  0  0  0  0  0  # atno 13493 bound_to 8345
  120.0319  237.5168  319.5978 LP  0  0  0  0  0  0  0  0  0  0  0  0  # atno 13494 bound_to 8345
  122.7678  237.2573  327.5291 LP  0  0  0  0  0  0  0  0  0  0  0  0  # atno 13495 bound_to 9130
  125.3093  245.1592  318.0219 LP  0  0  0  0  0  0  0  0  0  0  0  0  # atno 13496 bound_to 4885
  124.7141  246.3937  318.9098 LP  0  0  0  0  0  0  0  0  0  0  0  0  # atno 13497 bound_to 4885
  120.8729  243.8264  315.3232 LP  0  0  0  0  0  0  0  0  0  0  0  0  # atno 13498 bound_to 8977
  120.1870  245.2046  314.7787 LP  0  0  0  0  0  0  0  0  0  0  0  0  # atno 13499 bound_to 8977
  122.7026  249.3276  328.7637 LP  0  0  0  0  0  0  0  0  0  0  0  0  # atno 13500 bound_to 3563
  114.7770  247.5392  317.3469 LP  0  0  0  0  0  0  0  0  0  0  0  0  # atno 13501 bound_to 8448
  113.5477  248.7477  317.1789 LP  0  0  0  0  0  0  0  0  0  0  0  0  # atno 13502 bound_to 8448
  120.0257  248.8830  330.0598 LP  0  0  0  0  0  0  0  0  0  0  0  0  # atno 13503 bound_to 3502
  118.5714  249.3833  330.8565 LP  0  0  0  0  0  0  0  0  0  0  0  0  # atno 13504 bound_to 3502
  119.9683  251.7881  328.5747 LP  0  0  0  0  0  0  0  0  0  0  0  0  # atno 13505 bound_to 3542
  113.2171  243.3702  316.7654 LP  0  0  0  0  0  0  0  0  0  0  0  0  # atno 13506 bound_to 8426
  112.6493  244.9245  317.2770 LP  0  0  0  0  0  0  0  0  0  0  0  0  # atno 13507 bound_to 8426
  112.4577  247.5183  318.3815 LP  0  0  0  0  0  0  0  0  0  0  0  0  # atno 13510 bound_to 8476
  115.4523  248.1726  316.3287 LP  0  0  0  0  0  0  0  0  0  0  0  0  # atno 13511 bound_to 8937
  109.6629  246.5155  319.4069 LP  0  0  0  0  0  0  0  0  0  0  0  0  # atno 13514 bound_to 5543
  110.7857  245.2115  319.6046 LP  0  0  0  0  0  0  0  0  0  0  0  0  # atno 13515 bound_to 5543
  111.0772  251.7002  329.7127 LP  0  0  0  0  0  0  0  0  0  0  0  0  # atno 13516 bound_to 12863
  112.2113  251.6684  328.5382 LP  0  0  0  0  0  0  0  0  0  0  0  0  # atno 13517 bound_to 12863
  107.5517  242.8433  320.1385 LP  0  0  0  0  0  0  0  0  0  0  0  0  # atno 13518 bound_to 5545
  106.1123  242.9162  320.9061 LP  0  0  0  0  0  0  0  0  0  0  0  0  # atno 13519 bound_to 5545
  109.0201  244.4701  318.8464 LP  0  0  0  0  0  0  0  0  0  0  0  0  # atno 13520 bound_to 5565
  112.6535  238.7600  321.0753 LP  0  0  0  0  0  0  0  0  0  0  0  0  # atno 13523 bound_to 8319
  112.4121  237.5603  322.1565 LP  0  0  0  0  0  0  0  0  0  0  0  0  # atno 13524 bound_to 8319
  114.3423  236.7679  329.0887 LP  0  0  0  0  0  0  0  0  0  0  0  0  # atno 13525 bound_to 9180
  114.4171  238.2631  328.2177 LP  0  0  0  0  0  0  0  0  0  0  0  0  # atno 13526 bound_to 9180
  106.7361  243.5013  318.0744 LP  0  0  0  0  0  0  0  0  0  0  0  0  # atno 13529 bound_to 5540
  110.4783  249.3121  317.5705 LP  0  0  0  0  0  0  0  0  0  0  0  0  # atno 13530 bound_to 8500
  107.8799  246.0111  316.0182 LP  0  0  0  0  0  0  0  0  0  0  0  0  # atno 13531 bound_to 5517
  107.1070  246.8673  317.3103 LP  0  0  0  0  0  0  0  0  0  0  0  0  # atno 13532 bound_to 5517
  109.6961  246.0328  317.1322 LP  0  0  0  0  0  0  0  0  0  0  0  0  # atno 13533 bound_to 8481
  110.5157  244.8913  316.3003 LP  0  0  0  0  0  0  0  0  0  0  0  0  # atno 13534 bound_to 8481
  107.8637  252.7005  319.4476 LP  0  0  0  0  0  0  0  0  0  0  0  0  # atno 13535 bound_to 8503
  107.6123  251.4352  320.6034 LP  0  0  0  0  0  0  0  0  0  0  0  0  # atno 13536 bound_to 8503
  109.3386  251.3869  318.9005 LP  0  0  0  0  0  0  0  0  0  0  0  0  # atno 13537 bound_to 8528
  109.2517  241.3134  315.6773 LP  0  0  0  0  0  0  0  0  0  0  0  0  # atno 13538 bound_to 5568
  108.4489  242.2600  316.8854 LP  0  0  0  0  0  0  0  0  0  0  0  0  # atno 13539 bound_to 5568
  109.9754  249.8582  315.3851 LP  0  0  0  0  0  0  0  0  0  0  0  0  # atno 13540 bound_to 8479
  108.4943  249.1607  315.9509 LP  0  0  0  0  0  0  0  0  0  0  0  0  # atno 13541 bound_to 8479
  104.3092  253.1840  323.3484 LP  0  0  0  0  0  0  0  0  0  0  0  0  # atno 13545 bound_to 12894
  104.8591  252.8304  321.7444 LP  0  0  0  0  0  0  0  0  0  0  0  0  # atno 13546 bound_to 12894
  109.7636  254.9076  322.0950 LP  0  0  0  0  0  0  0  0  0  0  0  0  # atno 13547 bound_to 12822
  111.2378  255.6501  321.5703 LP  0  0  0  0  0  0  0  0  0  0  0  0  # atno 13548 bound_to 12822
  110.6393  255.5648  324.4937 LP  0  0  0  0  0  0  0  0  0  0  0  0  # atno 13549 bound_to 12852
  106.5696  254.6885  323.5719 LP  0  0  0  0  0  0  0  0  0  0  0  0  # atno 13550 bound_to 12891

> <Gold.Score>
     Fitness  S(hb_ext) S(vdw_ext)  S(hb_int)    S(int)      intcor
     37.76      12.00      19.85       0.00      -1.53      -0.76

> <Gold.Goldscore.Fitness>
37.7648

> <Gold.Goldscore.Internal.Vdw>
-1.9203

> <Gold.Goldscore.Internal.Torsion>
-0.3776

> <Gold.Goldscore.External.Vdw>
19.8529

> <Gold.Goldscore.Internal.HBond>
0.0000

> <Gold.Goldscore.External.HBond>
12.0000

> <Gold.Goldscore.Internal.Correction>
-0.7650

> <Gold.Goldscore.Hbonds>
donor molecule, donor type, donor heavy atom, donor atom, acceptor molecule, acceptor atom, score
      L1  H     8    22       P1 13310  1.00
      L1  H    10    23       P1  8507  1.00

> <Gold.Goldscore.Internal.Vdw.Weighted>
-1.9203

> <Gold.Goldscore.Internal.Torsion.Weighted>
-0.3776

> <Gold.Goldscore.External.Vdw.Weighted>
27.2978

> <Gold.Goldscore.Internal.HBond.Weighted>
0.0000

> <Gold.Goldscore.External.HBond.Weighted>
12.0000

> <Gold.Goldscore.Internal.Correction.Weighted>
-0.7650

> <Gold.Rescore>
     Score     S(PLP)   S(hbond)     S(cho)   S(metal)  DE(clash)   DE(tors)     intcor
     34.36     -30.71       1.76       0.00       0.00       0.22       0.71       ----

> <Gold.PLP.Fitness>
34.3583

> <Gold.PLP.PLP>
-30.7136

> <Gold.PLP.part.hbond>
-2.0000

> <Gold.PLP.part.metal>
0.0000

> <Gold.PLP.part.buried>
-5.7760

> <Gold.PLP.part.nonpolar>
-25.6914

> <Gold.PLP.part.repulsive>
1.4217

> <Gold.PLP.ligand.clash>
0.2213

> <Gold.PLP.ligand.torsion>
0.7070

> <Gold.PLP.Chemscore.Hbond>
1.7600

> <Gold.PLP.Chemscore.CHOScore>
0.0000

> <Gold.PLP.Chemscore.Metal>
0.0000

> <Gold.Chemscore.Hbonds>
donor molecule, donor type, donor heavy atom, donor atom, acceptor molecule, acceptor atom, score
      L1  H     8    22       P1 13310  0.91
      L1  H    10    23       P1  8507  1.00

> <Gold.PLP.Chemscore.Internal.Correction>
   9.000000E+99

