#       Name:                CT1002167954
#       Creating user name   hitesit
#       Creation time:       Sun Apr 16 22:52:07 2023


#       File generated by GOLD software.
#

@<TRIPOS>MOLECULE
CT1002167954|ligand_prepared|mol2|1|dock6
    29    30     1
SMALL
NO_CHARGES


@<TRIPOS>ATOM
      1 C1         113.2596 241.6269 325.9833 C.3            1 RES1               0.0000
      2 C2         113.0778 243.0663 325.4602 C.ar           1 RES1               0.0000
      3 C3         111.8619 241.1115 326.3138 C.2            1 RES1               0.0000
      4 C4         113.9608 240.8543 324.8715 C.2            1 RES1               0.0000
      5 C5         114.1325 241.5302 327.2562 C.3            1 RES1               0.0000
      6 C6         111.9026 243.4436 324.8174 C.ar           1 RES1               0.0000
      7 C7         114.0737 244.0270 325.6150 C.ar           1 RES1               0.0000
      8 N8         111.3093 240.1964 325.4669 N.am           1 RES1               0.0000
      9 O9         111.2383 241.5310 327.2809 O.2            1 RES1               0.0000
     10 N10        113.2708 239.8401 324.2605 N.am           1 RES1               0.0000
     11 O11        115.0985 241.1254 324.5077 O.2            1 RES1               0.0000
     12 C12        113.9700 240.2214 328.0131 C.3            1 RES1               0.0000
     13 C13        111.7279 244.7353 324.3491 C.ar           1 RES1               0.0000
     14 C14        113.8970 245.3182 325.1457 C.ar           1 RES1               0.0000
     15 C15        111.9659 239.4963 324.4869 C.2            1 RES1               0.0000
     16 C16        112.7246 245.6735 324.5132 C.ar           1 RES1               0.0000
     17 O17        111.3979 238.6077 323.8585 O.2            1 RES1               0.0000
     18 H18        115.1857 241.6451 326.9717 H              1 RES1               0.0000
     19 H19        113.8736 242.3597 327.9257 H              1 RES1               0.0000
     20 H20        111.1081 242.7183 324.6770 H              1 RES1               0.0000
     21 H21        115.0047 243.7698 326.1085 H              1 RES1               0.0000
     22 H22        110.3159 240.0161 325.5719 H              1 RES1               0.0000
     23 H23        113.7769 239.2905 323.5734 H              1 RES1               0.0000
     24 H24        114.6042 240.2058 328.8970 H              1 RES1               0.0000
     25 H25        112.9390 240.0865 328.3334 H              1 RES1               0.0000
     26 H26        114.2432 239.3761 327.3850 H              1 RES1               0.0000
     27 H27        110.8039 245.0095 323.8508 H              1 RES1               0.0000
     28 H28        114.6844 246.0531 325.2765 H              1 RES1               0.0000
     29 H29        112.5873 246.6854 324.1466 H              1 RES1               0.0000
@<TRIPOS>BOND
    1    1    2 1     
    2    1    3 1     
    3    1    4 1     
    4    1    5 1     
    5    2    6 ar    
    6    2    7 ar    
    7    3    8 1     
    8    3    9 2     
    9    4   10 1     
   10    4   11 2     
   11    5   12 1     
   12    5   18 1     
   13    5   19 1     
   14    6   13 ar    
   15    6   20 1     
   16    7   14 ar    
   17    7   21 1     
   18    8   15 1     
   19    8   22 1     
   20   10   15 1     
   21   10   23 1     
   22   12   24 1     
   23   12   25 1     
   24   12   26 1     
   25   13   16 ar    
   26   13   27 1     
   27   14   16 ar    
   28   14   28 1     
   29   15   17 2     
   30   16   29 1     
@<TRIPOS>SUBSTRUCTURE
      1 RES1           1
@<TRIPOS>SET
DONOR_HYDROGENS      STATIC     ATOMS    <user>   **** ""
2 22 23
ATOM$RED        STATIC     ATOMS    COLORGROUP SYSTEM
2 22 23
@<TRIPOS>COMMENT
> <Gold.Version>
2022.3.0

> <Gold.Id.Protein>
unknown|5adf_clean|pdb

> <Gold.Protein.RotatedTorsions>
[ 8428 8423 8424 8425 ] final   46.85 input   46.96 | X-H torsion
[ 8452 8445 8446 8447 ] final   58.22 input  111.34 | X-H torsion
[ 8996 8992 8993 8994 ] final -164.33 input   44.62 | X-H torsion
[ 9030 9016 9017 9018 ] final  125.05 input   32.56 | X-H torsion
[ 9074 9062 9063 9064 ] final  -29.52 input   99.28 | X-H torsion
[ 9082 9073 9072 9070 ] final  -59.46 input   59.99 | X-H torsion
[ 9108 9100 9101 9102 ] final  -55.77 input   89.92 | X-H torsion
[ 9186 9177 9178 9179 ] final -121.19 input  116.56 | X-H torsion
[ 3596 3592 3593 3594 ] final -165.20 input   84.58 | X-H torsion
[ 8978 8972 8973 8974 ] final -170.80 input   29.23 | X-H torsion
[ 9134 9130 9131 9132 ] final -128.87 input  126.15 | X-H torsion
[ 4890 4885 4884 4881 ] final  -16.37 input   60.00 | X-H torsion
[ 8982 8977 8976 8973 ] final -102.74 input   60.00 | X-H torsion
[ 3570 3563 3564 3565 ] final  -68.52 input  100.61 | X-H torsion
[ 3548 3542 3543 3544 ] final   15.58 input   82.26 | X-H torsion
[ 8482 8476 8477 8478 ] final   56.85 input   53.28 | X-H torsion
[ 8948 8937 8938 8939 ] final   95.56 input   48.32 | X-H torsion
[ 12872 12863 12862 12860 ] final   76.11 input   60.03 | X-H torsion
[ 5550 5545 5544 5541 ] final  164.16 input   60.00 | X-H torsion
[ 5574 5565 5566 5567 ] final   41.79 input   49.17 | X-H torsion
[ 8328 8319 8318 8316 ] final -155.93 input   60.00 | X-H torsion
[ 5546 5540 5541 5542 ] final -132.03 input  103.84 | X-H torsion
[ 8508 8500 8501 8502 ] final   95.20 input   63.30 | X-H torsion
[ 8486 8481 8480 8477 ] final   55.01 input   60.02 | X-H torsion
[ 8536 8528 8529 8530 ] final  146.18 input   88.08 | X-H torsion
[ 12864 12852 12853 12854 ] final   75.81 input  106.44 | X-H torsion
[ 12900 12891 12892 12893 ] final -110.45 input   37.87 | X-H torsion
[ 9214 9206 9207 9208 ] final  108.20 input   89.32 | X-H torsion
[ 11050 11043 11044 11045 ] final -150.25 input   52.80 | X-H torsion
[ 5606 5598 5599 5600 ] final   86.68 input  119.27 | X-H torsion
[ 8570 8562 8563 8564 ] final -178.35 input   68.50 | X-H torsion
[ 13460 8400 8399 8398 ] final -106.13 input   -0.00 | X-H torsion
[ 13464 8940 8939 8938 ] final  -60.64 input   -0.00 | X-H torsion
[ 13467 8995 8994 8993 ] final   89.33 input    0.00 | X-H torsion
[ 13470 9019 9018 9017 ] final  -96.05 input    0.00 | X-H torsion
[ 13473 9065 9064 9063 ] final -138.24 input   -0.00 | X-H torsion
[ 13478 9103 9102 9101 ] final  -75.82 input   -0.00 | X-H torsion
[ 13491 8975 8974 8973 ] final   69.38 input    0.00 | X-H torsion
[ 13493 8345 8344 8343 ] final -120.19 input    0.00 | X-H torsion
[ 13501 8448 8447 8446 ] final  -91.20 input    0.00 | X-H torsion
[ 13503 3502 3501 3500 ] final   11.36 input    0.00 | X-H torsion
[ 13506 8426 8425 8424 ] final -110.68 input    0.00 | X-H torsion
[ 13514 5543 5542 5541 ] final -145.85 input   -0.00 | X-H torsion
[ 13525 9180 9179 9178 ] final   77.84 input    0.00 | X-H torsion
[ 13531 5517 5516 5515 ] final  -71.92 input    0.00 | X-H torsion
[ 13535 8503 8502 8501 ] final -143.81 input   -0.00 | X-H torsion
[ 13538 5568 5567 5566 ] final -113.00 input   -0.00 | X-H torsion
[ 13540 8479 8478 8477 ] final   54.57 input   -0.00 | X-H torsion
[ 13545 12894 12893 12892 ] final   63.44 input    0.00 | X-H torsion
[ 13547 12822 12821 12820 ] final   55.30 input   -0.00 | X-H torsion

> <Gold.Protein.ActiveResidues>
 TRP311  MET341  HIS342  TRP414  ALA417  ARG419  CYS420  VAL421  GLY422  LEU460 
 SER462  ASN481  SER482  GLN483  LEU484  ARG486  ALA502  ASN503  TRP566  TYR567 
 GLY568  LEU569  PRO570  ALA571  VAL572  SER573  ASN574  MET575  LEU576  PHE589 
 SER590  GLY591  TRP592  TYR593  MET594  GLY595  GLU597  ILE598  ARG601  ASP602 
 ARG608  ILE653  VAL654  TRP683  PHE709  GLU710  TYR711  GLN712  ASP714  HEM750 
 H4B760 

> <Gold.Protein.RotatedAtoms>
  121.0245  251.6646  329.7069 H   0  0  0  0  0  0  0  0  0  0  0  0  # atno 3548 bound_to 3542
  122.7124  249.3875  328.8396 H   0  0  0  0  0  0  0  0  0  0  0  0  # atno 3570 bound_to 3563
  124.2836  247.0311  328.1397 H   0  0  0  0  0  0  0  0  0  0  0  0  # atno 3596 bound_to 3592
  124.9273  245.2622  318.1502 H   0  0  0  0  0  0  0  0  0  0  0  0  # atno 4890 bound_to 4885
  105.9518  245.0406  317.8277 H   0  0  0  0  0  0  0  0  0  0  0  0  # atno 5546 bound_to 5540
  107.0048  243.0300  321.8643 H   0  0  0  0  0  0  0  0  0  0  0  0  # atno 5550 bound_to 5545
  108.4614  242.8749  318.4757 H   0  0  0  0  0  0  0  0  0  0  0  0  # atno 5574 bound_to 5565
  112.2725  242.5966  316.3122 H   0  0  0  0  0  0  0  0  0  0  0  0  # atno 5606 bound_to 5598
  112.5333  238.7741  320.9704 H   0  0  0  0  0  0  0  0  0  0  0  0  # atno 8328 bound_to 8319
  114.9956  241.8929  318.4763 H   0  0  0  0  0  0  0  0  0  0  0  0  # atno 8428 bound_to 8423
  115.4653  245.8488  318.3717 H   0  0  0  0  0  0  0  0  0  0  0  0  # atno 8452 bound_to 8445
  111.1156  246.5480  318.4180 H   0  0  0  0  0  0  0  0  0  0  0  0  # atno 8482 bound_to 8476
  109.2178  246.1546  316.6955 H   0  0  0  0  0  0  0  0  0  0  0  0  # atno 8486 bound_to 8481
  110.0888  248.2421  318.8590 H   0  0  0  0  0  0  0  0  0  0  0  0  # atno 8508 bound_to 8500
  110.6593  250.6217  319.6072 H   0  0  0  0  0  0  0  0  0  0  0  0  # atno 8536 bound_to 8528
  109.8470  254.5644  319.4167 H   0  0  0  0  0  0  0  0  0  0  0  0  # atno 8570 bound_to 8562
  115.5299  249.0608  316.3430 H   0  0  0  0  0  0  0  0  0  0  0  0  # atno 8948 bound_to 8937
  118.0867  246.8474  316.4022 H   0  0  0  0  0  0  0  0  0  0  0  0  # atno 8978 bound_to 8972
  119.5947  244.6802  314.2432 H   0  0  0  0  0  0  0  0  0  0  0  0  # atno 8982 bound_to 8977
  120.8585  245.2944  318.1693 H   0  0  0  0  0  0  0  0  0  0  0  0  # atno 8996 bound_to 8992
  123.7213  242.6738  320.0945 H   0  0  0  0  0  0  0  0  0  0  0  0  # atno 9030 bound_to 9016
  122.9059  240.0279  322.5706 H   0  0  0  0  0  0  0  0  0  0  0  0  # atno 9074 bound_to 9062
  114.6842  237.6115  323.1382 H   0  0  0  0  0  0  0  0  0  0  0  0  # atno 9082 bound_to 9073
  121.9069  239.0214  325.4663 H   0  0  0  0  0  0  0  0  0  0  0  0  # atno 9108 bound_to 9100
  122.5478  237.3446  327.4544 H   0  0  0  0  0  0  0  0  0  0  0  0  # atno 9134 bound_to 9130
  118.4061  238.2347  330.5654 H   0  0  0  0  0  0  0  0  0  0  0  0  # atno 9186 bound_to 9177
  117.6743  236.3914  327.8319 H   0  0  0  0  0  0  0  0  0  0  0  0  # atno 9214 bound_to 9206
  126.5774  237.2662  324.7807 H   0  0  0  0  0  0  0  0  0  0  0  0  # atno 11050 bound_to 11043
  109.6966  256.7507  324.9670 H   0  0  0  0  0  0  0  0  0  0  0  0  # atno 12864 bound_to 12852
  112.1545  251.4239  328.3455 H   0  0  0  0  0  0  0  0  0  0  0  0  # atno 12872 bound_to 12863
  107.0120  255.4951  323.4850 H   0  0  0  0  0  0  0  0  0  0  0  0  # atno 12900 bound_to 12891
  118.0346  243.7294  319.3030 LP  0  0  0  0  0  0  0  0  0  0  0  0  # atno 13460 bound_to 8400
  118.7068  242.6254  318.1500 LP  0  0  0  0  0  0  0  0  0  0  0  0  # atno 13461 bound_to 8400
  116.6859  242.2559  318.7230 LP  0  0  0  0  0  0  0  0  0  0  0  0  # atno 13462 bound_to 8423
  114.5720  244.3919  318.7407 LP  0  0  0  0  0  0  0  0  0  0  0  0  # atno 13463 bound_to 8445
  116.4647  246.9543  318.0783 LP  0  0  0  0  0  0  0  0  0  0  0  0  # atno 13464 bound_to 8940
  116.6395  245.5913  317.0239 LP  0  0  0  0  0  0  0  0  0  0  0  0  # atno 13465 bound_to 8940
  120.3870  243.6788  318.6478 LP  0  0  0  0  0  0  0  0  0  0  0  0  # atno 13466 bound_to 8992
  123.2787  241.6427  317.7158 LP  0  0  0  0  0  0  0  0  0  0  0  0  # atno 13467 bound_to 8995
  121.5898  241.4802  318.0642 LP  0  0  0  0  0  0  0  0  0  0  0  0  # atno 13468 bound_to 8995
  122.0473  242.7974  320.5740 LP  0  0  0  0  0  0  0  0  0  0  0  0  # atno 13469 bound_to 9016
  123.0659  241.9163  323.5375 LP  0  0  0  0  0  0  0  0  0  0  0  0  # atno 13470 bound_to 9019
  121.4966  242.2666  322.8934 LP  0  0  0  0  0  0  0  0  0  0  0  0  # atno 13471 bound_to 9019
  121.6582  239.0926  321.7786 LP  0  0  0  0  0  0  0  0  0  0  0  0  # atno 13472 bound_to 9062
  123.9547  238.1985  325.6422 LP  0  0  0  0  0  0  0  0  0  0  0  0  # atno 13473 bound_to 9065
  124.0779  238.9880  324.1055 LP  0  0  0  0  0  0  0  0  0  0  0  0  # atno 13474 bound_to 9065
  115.1097  237.5687  321.5680 LP  0  0  0  0  0  0  0  0  0  0  0  0  # atno 13475 bound_to 9073
  114.9236  239.0022  322.3276 LP  0  0  0  0  0  0  0  0  0  0  0  0  # atno 13476 bound_to 9073
  121.5954  240.6399  326.0520 LP  0  0  0  0  0  0  0  0  0  0  0  0  # atno 13477 bound_to 9100
  119.8743  238.6575  328.3939 LP  0  0  0  0  0  0  0  0  0  0  0  0  # atno 13478 bound_to 9103
  120.0352  237.6098  327.0240 LP  0  0  0  0  0  0  0  0  0  0  0  0  # atno 13479 bound_to 9103
  118.7706  237.3186  329.1269 LP  0  0  0  0  0  0  0  0  0  0  0  0  # atno 13480 bound_to 9177
  124.3469  248.6887  327.5953 LP  0  0  0  0  0  0  0  0  0  0  0  0  # atno 13489 bound_to 3592
  119.7797  247.2746  316.4417 LP  0  0  0  0  0  0  0  0  0  0  0  0  # atno 13490 bound_to 8972
  121.6637  246.9319  317.1943 LP  0  0  0  0  0  0  0  0  0  0  0  0  # atno 13491 bound_to 8975
  122.3723  245.5307  316.4632 LP  0  0  0  0  0  0  0  0  0  0  0  0  # atno 13492 bound_to 8975
  120.0319  237.5122  319.6019 LP  0  0  0  0  0  0  0  0  0  0  0  0  # atno 13493 bound_to 8345
  121.2946  236.7146  318.7248 LP  0  0  0  0  0  0  0  0  0  0  0  0  # atno 13494 bound_to 8345
  122.5564  237.6638  329.1738 LP  0  0  0  0  0  0  0  0  0  0  0  0  # atno 13495 bound_to 9130
  125.0356  246.6396  319.0104 LP  0  0  0  0  0  0  0  0  0  0  0  0  # atno 13496 bound_to 4885
  126.3759  245.9751  318.3557 LP  0  0  0  0  0  0  0  0  0  0  0  0  # atno 13497 bound_to 4885
  120.2976  243.3225  314.7998 LP  0  0  0  0  0  0  0  0  0  0  0  0  # atno 13498 bound_to 8977
  120.8167  244.7834  315.3125 LP  0  0  0  0  0  0  0  0  0  0  0  0  # atno 13499 bound_to 8977
  121.9291  247.9124  329.3611 LP  0  0  0  0  0  0  0  0  0  0  0  0  # atno 13500 bound_to 3563
  114.0103  248.7762  317.8342 LP  0  0  0  0  0  0  0  0  0  0  0  0  # atno 13501 bound_to 8448
  114.3145  247.5106  316.6915 LP  0  0  0  0  0  0  0  0  0  0  0  0  # atno 13502 bound_to 8448
  118.5794  249.3857  330.8694 LP  0  0  0  0  0  0  0  0  0  0  0  0  # atno 13503 bound_to 3502
  120.0176  248.8805  330.0469 LP  0  0  0  0  0  0  0  0  0  0  0  0  # atno 13504 bound_to 3502
  119.5235  251.2351  328.9236 LP  0  0  0  0  0  0  0  0  0  0  0  0  # atno 13505 bound_to 3542
  112.9931  244.9102  316.6157 LP  0  0  0  0  0  0  0  0  0  0  0  0  # atno 13506 bound_to 8426
  112.8733  243.3845  317.4267 LP  0  0  0  0  0  0  0  0  0  0  0  0  # atno 13507 bound_to 8426
  112.7112  247.1582  318.0599 LP  0  0  0  0  0  0  0  0  0  0  0  0  # atno 13510 bound_to 8476
  115.7477  248.1429  314.8724 LP  0  0  0  0  0  0  0  0  0  0  0  0  # atno 13511 bound_to 8937
  110.6936  245.5801  318.8353 LP  0  0  0  0  0  0  0  0  0  0  0  0  # atno 13514 bound_to 5543
  109.7550  246.1469  320.1762 LP  0  0  0  0  0  0  0  0  0  0  0  0  # atno 13515 bound_to 5543
  110.8466  250.5797  328.8203 LP  0  0  0  0  0  0  0  0  0  0  0  0  # atno 13516 bound_to 12863
  111.3222  251.8957  329.6621 LP  0  0  0  0  0  0  0  0  0  0  0  0  # atno 13517 bound_to 12863
  107.8950  242.8867  320.5097 LP  0  0  0  0  0  0  0  0  0  0  0  0  # atno 13518 bound_to 5545
  106.2644  242.8646  320.4248 LP  0  0  0  0  0  0  0  0  0  0  0  0  # atno 13519 bound_to 5545
  109.0929  244.3920  319.0758 LP  0  0  0  0  0  0  0  0  0  0  0  0  # atno 13520 bound_to 5565
  112.5417  237.6546  322.1516 LP  0  0  0  0  0  0  0  0  0  0  0  0  # atno 13523 bound_to 8319
  111.2737  237.7557  321.1275 LP  0  0  0  0  0  0  0  0  0  0  0  0  # atno 13524 bound_to 8319
  114.3756  237.9852  327.9257 LP  0  0  0  0  0  0  0  0  0  0  0  0  # atno 13525 bound_to 9180
  114.3838  237.0458  329.3808 LP  0  0  0  0  0  0  0  0  0  0  0  0  # atno 13526 bound_to 9180
  106.7628  243.5106  318.0474 LP  0  0  0  0  0  0  0  0  0  0  0  0  # atno 13529 bound_to 5540
  110.3190  249.1585  317.3946 LP  0  0  0  0  0  0  0  0  0  0  0  0  # atno 13530 bound_to 8500
  108.0595  245.9578  316.2194 LP  0  0  0  0  0  0  0  0  0  0  0  0  # atno 13531 bound_to 5517
  106.9274  246.9206  317.1091 LP  0  0  0  0  0  0  0  0  0  0  0  0  # atno 13532 bound_to 5517
  110.5361  245.2171  316.8754 LP  0  0  0  0  0  0  0  0  0  0  0  0  # atno 13533 bound_to 8481
  109.6388  245.1165  315.5147 LP  0  0  0  0  0  0  0  0  0  0  0  0  # atno 13534 bound_to 8481
  108.1424  252.7958  319.7875 LP  0  0  0  0  0  0  0  0  0  0  0  0  # atno 13535 bound_to 8503
  107.3336  251.3400  320.2635 LP  0  0  0  0  0  0  0  0  0  0  0  0  # atno 13536 bound_to 8503
  109.5952  251.4944  318.5357 LP  0  0  0  0  0  0  0  0  0  0  0  0  # atno 13537 bound_to 8528
  109.2493  241.0188  316.2478 LP  0  0  0  0  0  0  0  0  0  0  0  0  # atno 13538 bound_to 5568
  108.4513  242.5546  316.3150 LP  0  0  0  0  0  0  0  0  0  0  0  0  # atno 13539 bound_to 5568
  109.0623  248.7341  315.3229 LP  0  0  0  0  0  0  0  0  0  0  0  0  # atno 13540 bound_to 8479
  109.4074  250.2848  316.0131 LP  0  0  0  0  0  0  0  0  0  0  0  0  # atno 13541 bound_to 8479
  104.9138  253.2612  323.3059 LP  0  0  0  0  0  0  0  0  0  0  0  0  # atno 13545 bound_to 12894
  104.2546  252.7531  321.7869 LP  0  0  0  0  0  0  0  0  0  0  0  0  # atno 13546 bound_to 12894
  111.3274  255.0392  321.9284 LP  0  0  0  0  0  0  0  0  0  0  0  0  # atno 13547 bound_to 12822
  109.6740  255.5185  321.7370 LP  0  0  0  0  0  0  0  0  0  0  0  0  # atno 13548 bound_to 12822
  110.5755  255.7828  323.8085 LP  0  0  0  0  0  0  0  0  0  0  0  0  # atno 13549 bound_to 12852
  107.1230  254.2150  322.3000 LP  0  0  0  0  0  0  0  0  0  0  0  0  # atno 13550 bound_to 12891

> <Gold.Score>
     Fitness  S(hb_ext) S(vdw_ext)  S(hb_int)    S(int)      intcor
     33.55       2.15      23.69       0.00      -1.17      -0.76

> <Gold.Goldscore.Fitness>
33.5514

> <Gold.Goldscore.Internal.Vdw>
-1.0830

> <Gold.Goldscore.Internal.Torsion>
-0.8530

> <Gold.Goldscore.External.Vdw>
23.6891

> <Gold.Goldscore.Internal.HBond>
0.0000

> <Gold.Goldscore.External.HBond>
2.1498

> <Gold.Goldscore.Internal.Correction>
-0.7650

> <Gold.Goldscore.Hbonds>
donor molecule, donor type, donor heavy atom, donor atom, acceptor molecule, acceptor atom, score
      P1  H  9513  9527       L1    17  0.12
      L1  H    10    23       P1  9073  0.70

> <Gold.Goldscore.Internal.Vdw.Weighted>
-1.0830

> <Gold.Goldscore.Internal.Torsion.Weighted>
-0.8530

> <Gold.Goldscore.External.Vdw.Weighted>
32.5726

> <Gold.Goldscore.Internal.HBond.Weighted>
0.0000

> <Gold.Goldscore.External.HBond.Weighted>
2.1498

> <Gold.Goldscore.Internal.Correction.Weighted>
-0.7650

> <Gold.Rescore>
     Score     S(PLP)   S(hbond)     S(cho)   S(metal)  DE(clash)   DE(tors)     intcor
     18.18     -21.69       0.00       0.00       0.00       1.33       1.09       ----

> <Gold.PLP.Fitness>
18.1829

> <Gold.PLP.PLP>
-21.6947

> <Gold.PLP.part.hbond>
-4.3897

> <Gold.PLP.part.metal>
0.0000

> <Gold.PLP.part.buried>
2.8466

> <Gold.PLP.part.nonpolar>
-21.9791

> <Gold.PLP.part.repulsive>
1.1332

> <Gold.PLP.ligand.clash>
1.3255

> <Gold.PLP.ligand.torsion>
1.0931

> <Gold.PLP.Chemscore.Hbond>
0.0000

> <Gold.PLP.Chemscore.CHOScore>
0.0000

> <Gold.PLP.Chemscore.Metal>
0.0000

> <Gold.PLP.Chemscore.Internal.Correction>
   9.000000E+99

