#       Name:                CT1002167954
#       Creating user name   hitesit
#       Creation time:       Sun Apr 16 22:52:10 2023


#       File generated by GOLD software.
#

@<TRIPOS>MOLECULE
CT1002167954|ligand_prepared|mol2|1|dock10
    29    30     1
SMALL
NO_CHARGES


@<TRIPOS>ATOM
      1 C1         110.2969 242.4554 327.6311 C.3            1 RES1               0.0000
      2 C2         111.5082 241.6086 327.1902 C.ar           1 RES1               0.0000
      3 C3         110.5792 242.8927 329.0655 C.2            1 RES1               0.0000
      4 C4         110.1974 243.6076 326.6375 C.2            1 RES1               0.0000
      5 C5         108.9552 241.6866 327.6071 C.3            1 RES1               0.0000
      6 C6         112.7106 241.6749 327.8877 C.ar           1 RES1               0.0000
      7 C7         111.4378 240.7562 326.0916 C.ar           1 RES1               0.0000
      8 N8         110.9262 244.1953 329.2721 N.am           1 RES1               0.0000
      9 O9         110.5366 242.0975 329.9961 O.2            1 RES1               0.0000
     10 N10        110.4169 244.8776 327.1030 N.am           1 RES1               0.0000
     11 O11        109.9474 243.4256 325.4524 O.2            1 RES1               0.0000
     12 C12        107.8203 242.4118 328.3129 C.3            1 RES1               0.0000
     13 C13        113.8023 240.9143 327.5027 C.ar           1 RES1               0.0000
     14 C14        112.5308 239.9966 325.7081 C.ar           1 RES1               0.0000
     15 C15        110.8070 245.2208 328.3689 C.2            1 RES1               0.0000
     16 C16        113.7130 240.0744 326.4131 C.ar           1 RES1               0.0000
     17 O17        111.0381 246.3808 328.6976 O.2            1 RES1               0.0000
     18 H18        108.6672 241.5116 326.5631 H              1 RES1               0.0000
     19 H19        109.0998 240.7090 328.0834 H              1 RES1               0.0000
     20 H20        112.8005 242.3320 328.7463 H              1 RES1               0.0000
     21 H21        110.5182 240.6796 325.5214 H              1 RES1               0.0000
     22 H22        111.3099 244.4285 330.1824 H              1 RES1               0.0000
     23 H23        110.2763 245.6375 326.4450 H              1 RES1               0.0000
     24 H24        106.9025 241.8294 328.2666 H              1 RES1               0.0000
     25 H25        108.0624 242.5801 329.3602 H              1 RES1               0.0000
     26 H26        107.6324 243.3779 327.8490 H              1 RES1               0.0000
     27 H27        114.7309 240.9802 328.0600 H              1 RES1               0.0000
     28 H28        112.4562 239.3374 324.8496 H              1 RES1               0.0000
     29 H29        114.5682 239.4785 326.1119 H              1 RES1               0.0000
@<TRIPOS>BOND
    1    1    2 1     
    2    1    3 1     
    3    1    4 1     
    4    1    5 1     
    5    2    6 ar    
    6    2    7 ar    
    7    3    8 1     
    8    3    9 2     
    9    4   10 1     
   10    4   11 2     
   11    5   12 1     
   12    5   18 1     
   13    5   19 1     
   14    6   13 ar    
   15    6   20 1     
   16    7   14 ar    
   17    7   21 1     
   18    8   15 1     
   19    8   22 1     
   20   10   15 1     
   21   10   23 1     
   22   12   24 1     
   23   12   25 1     
   24   12   26 1     
   25   13   16 ar    
   26   13   27 1     
   27   14   16 ar    
   28   14   28 1     
   29   15   17 2     
   30   16   29 1     
@<TRIPOS>SUBSTRUCTURE
      1 RES1           1
@<TRIPOS>SET
DONOR_HYDROGENS      STATIC     ATOMS    <user>   **** ""
2 22 23
ATOM$RED        STATIC     ATOMS    COLORGROUP SYSTEM
2 22 23
@<TRIPOS>COMMENT
> <Gold.Version>
2022.3.0

> <Gold.Id.Protein>
unknown|5adf_clean|pdb

> <Gold.Protein.RotatedTorsions>
[ 8428 8423 8424 8425 ] final  -10.68 input   46.96 | X-H torsion
[ 8452 8445 8446 8447 ] final  -84.14 input  111.34 | X-H torsion
[ 8996 8992 8993 8994 ] final    5.21 input   44.62 | X-H torsion
[ 9030 9016 9017 9018 ] final -148.67 input   32.56 | X-H torsion
[ 9074 9062 9063 9064 ] final   27.89 input   99.28 | X-H torsion
[ 9082 9073 9072 9070 ] final  -96.09 input   59.99 | X-H torsion
[ 9108 9100 9101 9102 ] final  -22.35 input   89.92 | X-H torsion
[ 9186 9177 9178 9179 ] final  -26.70 input  116.56 | X-H torsion
[ 3596 3592 3593 3594 ] final   79.75 input   84.58 | X-H torsion
[ 8978 8972 8973 8974 ] final   15.89 input   29.23 | X-H torsion
[ 9134 9130 9131 9132 ] final  140.33 input  126.15 | X-H torsion
[ 4890 4885 4884 4881 ] final  131.85 input   60.00 | X-H torsion
[ 8982 8977 8976 8973 ] final   51.54 input   60.00 | X-H torsion
[ 3570 3563 3564 3565 ] final -123.20 input  100.61 | X-H torsion
[ 3548 3542 3543 3544 ] final -130.07 input   82.26 | X-H torsion
[ 8482 8476 8477 8478 ] final -133.72 input   53.28 | X-H torsion
[ 8948 8937 8938 8939 ] final  -58.46 input   48.32 | X-H torsion
[ 12872 12863 12862 12860 ] final -169.23 input   60.03 | X-H torsion
[ 5550 5545 5544 5541 ] final  124.84 input   60.00 | X-H torsion
[ 5574 5565 5566 5567 ] final    5.75 input   49.17 | X-H torsion
[ 8328 8319 8318 8316 ] final  157.99 input   60.00 | X-H torsion
[ 5546 5540 5541 5542 ] final -156.17 input  103.84 | X-H torsion
[ 8508 8500 8501 8502 ] final  111.33 input   63.30 | X-H torsion
[ 8486 8481 8480 8477 ] final   30.51 input   60.02 | X-H torsion
[ 8536 8528 8529 8530 ] final   61.33 input   88.08 | X-H torsion
[ 12864 12852 12853 12854 ] final  -32.86 input  106.44 | X-H torsion
[ 12900 12891 12892 12893 ] final -140.50 input   37.87 | X-H torsion
[ 9214 9206 9207 9208 ] final  174.96 input   89.32 | X-H torsion
[ 11050 11043 11044 11045 ] final   -3.57 input   52.80 | X-H torsion
[ 5606 5598 5599 5600 ] final    9.68 input  119.27 | X-H torsion
[ 8570 8562 8563 8564 ] final  -87.72 input   68.50 | X-H torsion
[ 13460 8400 8399 8398 ] final  107.95 input   -0.00 | X-H torsion
[ 13464 8940 8939 8938 ] final  130.63 input   -0.00 | X-H torsion
[ 13467 8995 8994 8993 ] final  143.41 input    0.00 | X-H torsion
[ 13470 9019 9018 9017 ] final -102.95 input    0.00 | X-H torsion
[ 13473 9065 9064 9063 ] final  -68.58 input   -0.00 | X-H torsion
[ 13478 9103 9102 9101 ] final -102.83 input   -0.00 | X-H torsion
[ 13491 8975 8974 8973 ] final -171.72 input    0.00 | X-H torsion
[ 13493 8345 8344 8343 ] final  -40.86 input    0.00 | X-H torsion
[ 13501 8448 8447 8446 ] final -105.71 input    0.00 | X-H torsion
[ 13503 3502 3501 3500 ] final  -59.17 input    0.00 | X-H torsion
[ 13506 8426 8425 8424 ] final  -39.55 input    0.00 | X-H torsion
[ 13514 5543 5542 5541 ] final  127.85 input   -0.00 | X-H torsion
[ 13525 9180 9179 9178 ] final   77.12 input    0.00 | X-H torsion
[ 13531 5517 5516 5515 ] final  -95.76 input    0.00 | X-H torsion
[ 13535 8503 8502 8501 ] final  -24.44 input   -0.00 | X-H torsion
[ 13538 5568 5567 5566 ] final -142.09 input   -0.00 | X-H torsion
[ 13540 8479 8478 8477 ] final -122.53 input   -0.00 | X-H torsion
[ 13545 12894 12893 12892 ] final  130.71 input    0.00 | X-H torsion
[ 13547 12822 12821 12820 ] final -159.38 input   -0.00 | X-H torsion

> <Gold.Protein.ActiveResidues>
 TRP311  MET341  HIS342  TRP414  ALA417  ARG419  CYS420  VAL421  GLY422  LEU460 
 SER462  ASN481  SER482  GLN483  LEU484  ARG486  ALA502  ASN503  TRP566  TYR567 
 GLY568  LEU569  PRO570  ALA571  VAL572  SER573  ASN574  MET575  LEU576  PHE589 
 SER590  GLY591  TRP592  TYR593  MET594  GLY595  GLU597  ILE598  ARG601  ASP602 
 ARG608  ILE653  VAL654  TRP683  PHE709  GLU710  TYR711  GLN712  ASP714  HEM750 
 H4B760 

> <Gold.Protein.RotatedAtoms>
  119.5459  250.9398  329.3462 H   0  0  0  0  0  0  0  0  0  0  0  0  # atno 3548 bound_to 3542
  122.3841  249.3813  329.5869 H   0  0  0  0  0  0  0  0  0  0  0  0  # atno 3570 bound_to 3563
  123.6998  248.0897  327.2768 H   0  0  0  0  0  0  0  0  0  0  0  0  # atno 3596 bound_to 3592
  126.2897  246.3497  318.6054 H   0  0  0  0  0  0  0  0  0  0  0  0  # atno 4890 bound_to 4885
  105.7454  244.8806  318.0873 H   0  0  0  0  0  0  0  0  0  0  0  0  # atno 5546 bound_to 5540
  107.6083  243.0151  321.6848 H   0  0  0  0  0  0  0  0  0  0  0  0  # atno 5550 bound_to 5545
  108.4010  243.2521  318.0810 H   0  0  0  0  0  0  0  0  0  0  0  0  # atno 5574 bound_to 5565
  111.4134  241.9873  316.6267 H   0  0  0  0  0  0  0  0  0  0  0  0  # atno 5606 bound_to 5598
  112.9297  238.5143  321.5295 H   0  0  0  0  0  0  0  0  0  0  0  0  # atno 8328 bound_to 8319
  115.2151  242.3966  319.1235 H   0  0  0  0  0  0  0  0  0  0  0  0  # atno 8428 bound_to 8423
  114.4357  244.5352  318.2120 H   0  0  0  0  0  0  0  0  0  0  0  0  # atno 8452 bound_to 8445
  112.7424  247.0239  317.9757 H   0  0  0  0  0  0  0  0  0  0  0  0  # atno 8482 bound_to 8476
  109.4834  246.1195  316.9891 H   0  0  0  0  0  0  0  0  0  0  0  0  # atno 8486 bound_to 8481
  109.9493  248.1053  318.7106 H   0  0  0  0  0  0  0  0  0  0  0  0  # atno 8508 bound_to 8500
  110.8239  251.1099  318.5419 H   0  0  0  0  0  0  0  0  0  0  0  0  # atno 8536 bound_to 8528
  111.0131  254.2268  319.0831 H   0  0  0  0  0  0  0  0  0  0  0  0  # atno 8570 bound_to 8562
  115.6731  247.8522  315.1263 H   0  0  0  0  0  0  0  0  0  0  0  0  # atno 8948 bound_to 8937
  119.8019  247.2416  316.3463 H   0  0  0  0  0  0  0  0  0  0  0  0  # atno 8978 bound_to 8972
  120.9383  244.2504  315.4010 H   0  0  0  0  0  0  0  0  0  0  0  0  # atno 8982 bound_to 8977
  120.4396  243.6101  318.5102 H   0  0  0  0  0  0  0  0  0  0  0  0  # atno 8996 bound_to 8992
  122.6830  242.5536  319.4974 H   0  0  0  0  0  0  0  0  0  0  0  0  # atno 9030 bound_to 9016
  123.0226  239.1896  322.4731 H   0  0  0  0  0  0  0  0  0  0  0  0  # atno 9074 bound_to 9062
  114.7918  237.2097  322.7221 H   0  0  0  0  0  0  0  0  0  0  0  0  # atno 9082 bound_to 9073
  121.4377  239.0170  325.6672 H   0  0  0  0  0  0  0  0  0  0  0  0  # atno 9108 bound_to 9100
  123.3383  237.1053  328.4090 H   0  0  0  0  0  0  0  0  0  0  0  0  # atno 9134 bound_to 9130
  118.1313  237.0692  330.0917 H   0  0  0  0  0  0  0  0  0  0  0  0  # atno 9186 bound_to 9177
  116.9706  236.9342  327.4163 H   0  0  0  0  0  0  0  0  0  0  0  0  # atno 9214 bound_to 9206
  125.2900  237.0514  325.8475 H   0  0  0  0  0  0  0  0  0  0  0  0  # atno 11050 bound_to 11043
  110.0069  256.5952  323.5753 H   0  0  0  0  0  0  0  0  0  0  0  0  # atno 12864 bound_to 12852
  111.3923  251.9356  329.6271 H   0  0  0  0  0  0  0  0  0  0  0  0  # atno 12872 bound_to 12863
  107.2927  255.6574  323.1606 H   0  0  0  0  0  0  0  0  0  0  0  0  # atno 12900 bound_to 12891
  118.4370  242.9672  317.8890 LP  0  0  0  0  0  0  0  0  0  0  0  0  # atno 13460 bound_to 8400
  118.3044  243.3876  319.5640 LP  0  0  0  0  0  0  0  0  0  0  0  0  # atno 13461 bound_to 8400
  116.4709  241.7624  318.0889 LP  0  0  0  0  0  0  0  0  0  0  0  0  # atno 13462 bound_to 8423
  115.5749  245.6713  318.8962 LP  0  0  0  0  0  0  0  0  0  0  0  0  # atno 13463 bound_to 8445
  116.7523  245.5377  317.1394 LP  0  0  0  0  0  0  0  0  0  0  0  0  # atno 13464 bound_to 8940
  116.3519  247.0079  317.9628 LP  0  0  0  0  0  0  0  0  0  0  0  0  # atno 13465 bound_to 8940
  120.7933  245.3127  318.3171 LP  0  0  0  0  0  0  0  0  0  0  0  0  # atno 13466 bound_to 8992
  123.0695  241.0702  318.2143 LP  0  0  0  0  0  0  0  0  0  0  0  0  # atno 13467 bound_to 8995
  121.7990  242.0527  317.5657 LP  0  0  0  0  0  0  0  0  0  0  0  0  # atno 13468 bound_to 8995
  123.0682  242.9155  321.1612 LP  0  0  0  0  0  0  0  0  0  0  0  0  # atno 13469 bound_to 9016
  123.0167  241.8602  323.6100 LP  0  0  0  0  0  0  0  0  0  0  0  0  # atno 13470 bound_to 9019
  121.5459  242.3227  322.8209 LP  0  0  0  0  0  0  0  0  0  0  0  0  # atno 13471 bound_to 9019
  121.5448  239.9073  321.8733 LP  0  0  0  0  0  0  0  0  0  0  0  0  # atno 13472 bound_to 9062
  123.6951  237.7949  324.7772 LP  0  0  0  0  0  0  0  0  0  0  0  0  # atno 13473 bound_to 9065
  124.3375  239.3917  324.9704 LP  0  0  0  0  0  0  0  0  0  0  0  0  # atno 13474 bound_to 9065
  115.1531  238.1457  321.4408 LP  0  0  0  0  0  0  0  0  0  0  0  0  # atno 13475 bound_to 9073
  114.7718  238.8298  322.8737 LP  0  0  0  0  0  0  0  0  0  0  0  0  # atno 13476 bound_to 9073
  122.0509  240.6441  325.8569 LP  0  0  0  0  0  0  0  0  0  0  0  0  # atno 13477 bound_to 9100
  119.8518  238.2871  328.5550 LP  0  0  0  0  0  0  0  0  0  0  0  0  # atno 13478 bound_to 9103
  120.0577  237.9803  326.8628 LP  0  0  0  0  0  0  0  0  0  0  0  0  # atno 13479 bound_to 9103
  119.0422  238.4709  329.5952 LP  0  0  0  0  0  0  0  0  0  0  0  0  # atno 13480 bound_to 9177
  124.9209  247.6479  328.4437 LP  0  0  0  0  0  0  0  0  0  0  0  0  # atno 13489 bound_to 3592
  118.0981  246.8881  316.4966 LP  0  0  0  0  0  0  0  0  0  0  0  0  # atno 13490 bound_to 8972
  122.6402  245.8060  317.2553 LP  0  0  0  0  0  0  0  0  0  0  0  0  # atno 13491 bound_to 8975
  121.3957  246.6566  316.4022 LP  0  0  0  0  0  0  0  0  0  0  0  0  # atno 13492 bound_to 8975
  120.5434  236.5556  319.8149 LP  0  0  0  0  0  0  0  0  0  0  0  0  # atno 13493 bound_to 8345
  120.7831  237.6712  318.5118 LP  0  0  0  0  0  0  0  0  0  0  0  0  # atno 13494 bound_to 8345
  121.7874  237.8966  328.2452 LP  0  0  0  0  0  0  0  0  0  0  0  0  # atno 13495 bound_to 9130
  125.3522  245.1580  318.0137 LP  0  0  0  0  0  0  0  0  0  0  0  0  # atno 13496 bound_to 4885
  124.6880  246.3623  318.8943 LP  0  0  0  0  0  0  0  0  0  0  0  0  # atno 13497 bound_to 4885
  119.8725  245.0855  314.4988 LP  0  0  0  0  0  0  0  0  0  0  0  0  # atno 13498 bound_to 8977
  119.8885  243.4534  314.4472 LP  0  0  0  0  0  0  0  0  0  0  0  0  # atno 13499 bound_to 8977
  122.2473  247.9184  328.6369 LP  0  0  0  0  0  0  0  0  0  0  0  0  # atno 13500 bound_to 3563
  113.8541  248.8303  317.6909 LP  0  0  0  0  0  0  0  0  0  0  0  0  # atno 13501 bound_to 8448
  114.4707  247.4566  316.8349 LP  0  0  0  0  0  0  0  0  0  0  0  0  # atno 13502 bound_to 8448
  119.4923  249.3446  331.2753 LP  0  0  0  0  0  0  0  0  0  0  0  0  # atno 13503 bound_to 3502
  119.1048  248.9217  329.6410 LP  0  0  0  0  0  0  0  0  0  0  0  0  # atno 13504 bound_to 3502
  120.9724  251.9454  329.2770 LP  0  0  0  0  0  0  0  0  0  0  0  0  # atno 13505 bound_to 3542
  113.3442  244.0325  316.2677 LP  0  0  0  0  0  0  0  0  0  0  0  0  # atno 13506 bound_to 8426
  112.5221  244.2622  317.7748 LP  0  0  0  0  0  0  0  0  0  0  0  0  # atno 13507 bound_to 8426
  111.1100  246.6897  318.4953 LP  0  0  0  0  0  0  0  0  0  0  0  0  # atno 13510 bound_to 8476
  115.6075  249.3256  316.0629 LP  0  0  0  0  0  0  0  0  0  0  0  0  # atno 13511 bound_to 8937
  110.6284  245.2566  319.9730 LP  0  0  0  0  0  0  0  0  0  0  0  0  # atno 13514 bound_to 5543
  109.8202  246.4704  319.0385 LP  0  0  0  0  0  0  0  0  0  0  0  0  # atno 13515 bound_to 5543
  112.1321  251.3519  328.3003 LP  0  0  0  0  0  0  0  0  0  0  0  0  # atno 13516 bound_to 12863
  110.8041  250.6082  328.8918 LP  0  0  0  0  0  0  0  0  0  0  0  0  # atno 13517 bound_to 12863
  107.4339  242.8357  320.0770 LP  0  0  0  0  0  0  0  0  0  0  0  0  # atno 13518 bound_to 5545
  106.1174  242.9307  321.0384 LP  0  0  0  0  0  0  0  0  0  0  0  0  # atno 13519 bound_to 5545
  109.1515  244.0260  319.4588 LP  0  0  0  0  0  0  0  0  0  0  0  0  # atno 13520 bound_to 5565
  111.8868  237.3538  321.9923 LP  0  0  0  0  0  0  0  0  0  0  0  0  # atno 13523 bound_to 8319
  111.5293  238.3181  320.7238 LP  0  0  0  0  0  0  0  0  0  0  0  0  # atno 13524 bound_to 8319
  114.3768  237.9942  327.9315 LP  0  0  0  0  0  0  0  0  0  0  0  0  # atno 13525 bound_to 9180
  114.3827  237.0368  329.3749 LP  0  0  0  0  0  0  0  0  0  0  0  0  # atno 13526 bound_to 9180
  106.9657  243.6678  317.7923 LP  0  0  0  0  0  0  0  0  0  0  0  0  # atno 13529 bound_to 5540
  110.4575  249.2942  317.5419 LP  0  0  0  0  0  0  0  0  0  0  0  0  # atno 13530 bound_to 8500
  108.2060  245.9614  316.5458 LP  0  0  0  0  0  0  0  0  0  0  0  0  # atno 13531 bound_to 5517
  106.7809  246.9169  316.7828 LP  0  0  0  0  0  0  0  0  0  0  0  0  # atno 13532 bound_to 5517
  110.5715  244.9932  316.5458 LP  0  0  0  0  0  0  0  0  0  0  0  0  # atno 13533 bound_to 8481
  109.3361  245.3757  315.5489 LP  0  0  0  0  0  0  0  0  0  0  0  0  # atno 13534 bound_to 8481
  107.1501  251.7160  319.4958 LP  0  0  0  0  0  0  0  0  0  0  0  0  # atno 13535 bound_to 8503
  108.3259  252.4198  320.5552 LP  0  0  0  0  0  0  0  0  0  0  0  0  # atno 13536 bound_to 8503
  109.4325  251.0117  319.5889 LP  0  0  0  0  0  0  0  0  0  0  0  0  # atno 13537 bound_to 8528
  109.2781  241.1747  315.8427 LP  0  0  0  0  0  0  0  0  0  0  0  0  # atno 13538 bound_to 5568
  108.4225  242.3987  316.7201 LP  0  0  0  0  0  0  0  0  0  0  0  0  # atno 13539 bound_to 5568
  109.4443  250.2859  315.9894 LP  0  0  0  0  0  0  0  0  0  0  0  0  # atno 13540 bound_to 8479
  109.0254  248.7330  315.3466 LP  0  0  0  0  0  0  0  0  0  0  0  0  # atno 13541 bound_to 8479
  103.9815  253.0857  323.1633 LP  0  0  0  0  0  0  0  0  0  0  0  0  # atno 13545 bound_to 12894
  105.1869  252.9286  321.9295 LP  0  0  0  0  0  0  0  0  0  0  0  0  # atno 13546 bound_to 12894
  109.6760  255.0746  322.0007 LP  0  0  0  0  0  0  0  0  0  0  0  0  # atno 13547 bound_to 12822
  111.3254  255.4831  321.6646 LP  0  0  0  0  0  0  0  0  0  0  0  0  # atno 13548 bound_to 12822
  110.2717  255.9350  325.1707 LP  0  0  0  0  0  0  0  0  0  0  0  0  # atno 13549 bound_to 12852
  106.8491  254.0566  322.6165 LP  0  0  0  0  0  0  0  0  0  0  0  0  # atno 13550 bound_to 12891

> <Gold.Score>
     Fitness  S(hb_ext) S(vdw_ext)  S(hb_int)    S(int)      intcor
     28.07       5.99      17.15       0.00      -1.50      -0.76

> <Gold.Goldscore.Fitness>
28.0721

> <Gold.Goldscore.Internal.Vdw>
-1.6550

> <Gold.Goldscore.Internal.Torsion>
-0.6079

> <Gold.Goldscore.External.Vdw>
17.1457

> <Gold.Goldscore.Internal.HBond>
0.0000

> <Gold.Goldscore.External.HBond>
5.9946

> <Gold.Goldscore.Internal.Correction>
-0.7650

> <Gold.Goldscore.Hbonds>
donor molecule, donor type, donor heavy atom, donor atom, acceptor molecule, acceptor atom, score
      L1  H     8    22       P1 13418  1.00

> <Gold.Goldscore.Internal.Vdw.Weighted>
-1.6550

> <Gold.Goldscore.Internal.Torsion.Weighted>
-0.6079

> <Gold.Goldscore.External.Vdw.Weighted>
23.5753

> <Gold.Goldscore.Internal.HBond.Weighted>
0.0000

> <Gold.Goldscore.External.HBond.Weighted>
5.9946

> <Gold.Goldscore.Internal.Correction.Weighted>
-0.7650

> <Gold.Rescore>
     Score     S(PLP)   S(hbond)     S(cho)   S(metal)  DE(clash)   DE(tors)     intcor
     18.89     -21.05       0.00       0.00       0.00       0.10       1.03       ----

> <Gold.PLP.Fitness>
18.8927

> <Gold.PLP.PLP>
-21.0486

> <Gold.PLP.part.hbond>
0.0000

> <Gold.PLP.part.metal>
0.0000

> <Gold.PLP.part.buried>
-5.9514

> <Gold.PLP.part.nonpolar>
-16.3856

> <Gold.PLP.part.repulsive>
0.3545

> <Gold.PLP.ligand.clash>
0.0998

> <Gold.PLP.ligand.torsion>
1.0280

> <Gold.PLP.Chemscore.Hbond>
0.0000

> <Gold.PLP.Chemscore.CHOScore>
0.0000

> <Gold.PLP.Chemscore.Metal>
0.0000

> <Gold.Chemscore.Hbonds>
donor molecule, donor type, donor heavy atom, donor atom, acceptor molecule, acceptor atom, score
      L1  H     8    22       P1 13418  0.84

> <Gold.PLP.Chemscore.Internal.Correction>
   9.000000E+99

