#       Name:                CT1002167954
#       Creating user name   hitesit
#       Creation time:       Sun Apr 16 22:52:04 2023


#       File generated by GOLD software.
#

@<TRIPOS>MOLECULE
CT1002167954|ligand_prepared|mol2|1|dock3
    29    30     1
SMALL
NO_CHARGES


@<TRIPOS>ATOM
      1 C1         113.1254 245.7409 325.4233 C.3            1 RES1               0.0000
      2 C2         114.6053 245.6858 324.9927 C.ar           1 RES1               0.0000
      3 C3         113.0315 246.8212 326.4968 C.2            1 RES1               0.0000
      4 C4         112.3252 246.0462 324.1619 C.2            1 RES1               0.0000
      5 C5         112.5968 244.4134 326.0148 C.3            1 RES1               0.0000
      6 C6         115.3552 246.8529 324.8824 C.ar           1 RES1               0.0000
      7 C7         115.2342 244.4772 324.7056 C.ar           1 RES1               0.0000
      8 N8         112.4523 248.0066 326.1514 N.am           1 RES1               0.0000
      9 O9         113.4941 246.6498 327.6179 O.2            1 RES1               0.0000
     10 N10        111.6646 247.2450 324.0949 N.am           1 RES1               0.0000
     11 O11        112.2742 245.2666 323.2185 O.2            1 RES1               0.0000
     12 C12        111.2490 244.5439 326.7065 C.3            1 RES1               0.0000
     13 C13        116.6863 246.8132 324.5018 C.ar           1 RES1               0.0000
     14 C14        116.5654 244.4397 324.3248 C.ar           1 RES1               0.0000
     15 C15        111.7170 248.2520 325.0197 C.2            1 RES1               0.0000
     16 C16        117.2924 245.6067 324.2232 C.ar           1 RES1               0.0000
     17 O17        111.1390 249.3238 324.8633 O.2            1 RES1               0.0000
     18 H18        112.5091 243.6769 325.2065 H              1 RES1               0.0000
     19 H19        113.3291 244.0325 326.7374 H              1 RES1               0.0000
     20 H20        114.8946 247.8119 325.0953 H              1 RES1               0.0000
     21 H21        114.6815 243.5466 324.7778 H              1 RES1               0.0000
     22 H22        112.5776 248.7823 326.7939 H              1 RES1               0.0000
     23 H23        111.0796 247.4009 323.2802 H              1 RES1               0.0000
     24 H24        110.9245 243.5842 327.1032 H              1 RES1               0.0000
     25 H25        111.3060 245.2502 327.5322 H              1 RES1               0.0000
     26 H26        110.4908 244.8967 326.0104 H              1 RES1               0.0000
     27 H27        117.2537 247.7345 324.4219 H              1 RES1               0.0000
     28 H28        117.0381 243.4879 324.1059 H              1 RES1               0.0000
     29 H29        118.3352 245.5757 323.9254 H              1 RES1               0.0000
@<TRIPOS>BOND
    1    1    2 1     
    2    1    3 1     
    3    1    4 1     
    4    1    5 1     
    5    2    6 ar    
    6    2    7 ar    
    7    3    8 1     
    8    3    9 2     
    9    4   10 1     
   10    4   11 2     
   11    5   12 1     
   12    5   18 1     
   13    5   19 1     
   14    6   13 ar    
   15    6   20 1     
   16    7   14 ar    
   17    7   21 1     
   18    8   15 1     
   19    8   22 1     
   20   10   15 1     
   21   10   23 1     
   22   12   24 1     
   23   12   25 1     
   24   12   26 1     
   25   13   16 ar    
   26   13   27 1     
   27   14   16 ar    
   28   14   28 1     
   29   15   17 2     
   30   16   29 1     
@<TRIPOS>SUBSTRUCTURE
      1 RES1           1
@<TRIPOS>SET
DONOR_HYDROGENS      STATIC     ATOMS    <user>   **** ""
2 22 23
ATOM$RED        STATIC     ATOMS    COLORGROUP SYSTEM
2 22 23
@<TRIPOS>COMMENT
> <Gold.Version>
2022.3.0

> <Gold.Id.Protein>
unknown|5adf_clean|pdb

> <Gold.Protein.RotatedTorsions>
[ 8428 8423 8424 8425 ] final   60.22 input   46.96 | X-H torsion
[ 8452 8445 8446 8447 ] final   91.24 input  111.34 | X-H torsion
[ 8996 8992 8993 8994 ] final   81.20 input   44.62 | X-H torsion
[ 9030 9016 9017 9018 ] final   84.60 input   32.56 | X-H torsion
[ 9074 9062 9063 9064 ] final   76.81 input   99.28 | X-H torsion
[ 9082 9073 9072 9070 ] final -155.99 input   59.99 | X-H torsion
[ 9108 9100 9101 9102 ] final  107.43 input   89.92 | X-H torsion
[ 9186 9177 9178 9179 ] final   25.94 input  116.56 | X-H torsion
[ 3596 3592 3593 3594 ] final   57.69 input   84.58 | X-H torsion
[ 8978 8972 8973 8974 ] final  140.06 input   29.23 | X-H torsion
[ 9134 9130 9131 9132 ] final   87.67 input  126.15 | X-H torsion
[ 4890 4885 4884 4881 ] final  -76.96 input   60.00 | X-H torsion
[ 8982 8977 8976 8973 ] final   61.22 input   60.00 | X-H torsion
[ 3570 3563 3564 3565 ] final   -3.18 input  100.61 | X-H torsion
[ 3548 3542 3543 3544 ] final   15.88 input   82.26 | X-H torsion
[ 8482 8476 8477 8478 ] final  -28.69 input   53.28 | X-H torsion
[ 8948 8937 8938 8939 ] final    2.09 input   48.32 | X-H torsion
[ 12872 12863 12862 12860 ] final    8.04 input   60.03 | X-H torsion
[ 5550 5545 5544 5541 ] final  -60.45 input   60.00 | X-H torsion
[ 5574 5565 5566 5567 ] final -175.23 input   49.17 | X-H torsion
[ 8328 8319 8318 8316 ] final  -98.02 input   60.00 | X-H torsion
[ 5546 5540 5541 5542 ] final -172.99 input  103.84 | X-H torsion
[ 8508 8500 8501 8502 ] final -132.29 input   63.30 | X-H torsion
[ 8486 8481 8480 8477 ] final  -75.06 input   60.02 | X-H torsion
[ 8536 8528 8529 8530 ] final   37.44 input   88.08 | X-H torsion
[ 12864 12852 12853 12854 ] final   58.73 input  106.44 | X-H torsion
[ 12900 12891 12892 12893 ] final   50.46 input   37.87 | X-H torsion
[ 9214 9206 9207 9208 ] final  -53.52 input   89.32 | X-H torsion
[ 11050 11043 11044 11045 ] final -166.02 input   52.80 | X-H torsion
[ 5606 5598 5599 5600 ] final  -25.91 input  119.27 | X-H torsion
[ 8570 8562 8563 8564 ] final  -32.03 input   68.50 | X-H torsion
[ 13460 8400 8399 8398 ] final   84.95 input   -0.00 | X-H torsion
[ 13464 8940 8939 8938 ] final  101.85 input   -0.00 | X-H torsion
[ 13467 8995 8994 8993 ] final  159.91 input    0.00 | X-H torsion
[ 13470 9019 9018 9017 ] final   47.41 input    0.00 | X-H torsion
[ 13473 9065 9064 9063 ] final   78.64 input   -0.00 | X-H torsion
[ 13478 9103 9102 9101 ] final  -78.17 input   -0.00 | X-H torsion
[ 13491 8975 8974 8973 ] final  174.09 input    0.00 | X-H torsion
[ 13493 8345 8344 8343 ] final    4.46 input    0.00 | X-H torsion
[ 13501 8448 8447 8446 ] final -133.41 input    0.00 | X-H torsion
[ 13503 3502 3501 3500 ] final    2.49 input    0.00 | X-H torsion
[ 13506 8426 8425 8424 ] final   52.19 input    0.00 | X-H torsion
[ 13514 5543 5542 5541 ] final  151.72 input   -0.00 | X-H torsion
[ 13525 9180 9179 9178 ] final   28.19 input    0.00 | X-H torsion
[ 13531 5517 5516 5515 ] final  -75.26 input    0.00 | X-H torsion
[ 13535 8503 8502 8501 ] final  169.21 input   -0.00 | X-H torsion
[ 13538 5568 5567 5566 ] final  -50.26 input   -0.00 | X-H torsion
[ 13540 8479 8478 8477 ] final  168.81 input   -0.00 | X-H torsion
[ 13545 12894 12893 12892 ] final  -98.86 input    0.00 | X-H torsion
[ 13547 12822 12821 12820 ] final -178.44 input   -0.00 | X-H torsion

> <Gold.Protein.ActiveResidues>
 TRP311  MET341  HIS342  TRP414  ALA417  ARG419  CYS420  VAL421  GLY422  LEU460 
 SER462  ASN481  SER482  GLN483  LEU484  ARG486  ALA502  ASN503  TRP566  TYR567 
 GLY568  LEU569  PRO570  ALA571  VAL572  SER573  ASN574  MET575  LEU576  PHE589 
 SER590  GLY591  TRP592  TYR593  MET594  GLY595  GLU597  ILE598  ARG601  ASP602 
 ARG608  ILE653  VAL654  TRP683  PHE709  GLU710  TYR711  GLN712  ASP714  HEM750 
 H4B760 

> <Gold.Protein.RotatedAtoms>
  121.0254  251.6677  329.7035 H   0  0  0  0  0  0  0  0  0  0  0  0  # atno 3548 bound_to 3542
  122.6679  248.6028  328.2899 H   0  0  0  0  0  0  0  0  0  0  0  0  # atno 3570 bound_to 3563
  123.8652  248.3812  327.3106 H   0  0  0  0  0  0  0  0  0  0  0  0  # atno 3596 bound_to 3592
  124.5210  245.9486  318.6569 H   0  0  0  0  0  0  0  0  0  0  0  0  # atno 4890 bound_to 4885
  105.6637  244.7034  318.2552 H   0  0  0  0  0  0  0  0  0  0  0  0  # atno 5546 bound_to 5540
  106.4336  242.8474  320.2395 H   0  0  0  0  0  0  0  0  0  0  0  0  # atno 5550 bound_to 5545
  109.1776  244.0204  319.4809 H   0  0  0  0  0  0  0  0  0  0  0  0  # atno 5574 bound_to 5565
  110.9014  242.1552  316.5998 H   0  0  0  0  0  0  0  0  0  0  0  0  # atno 5606 bound_to 5598
  111.7226  238.4896  320.6812 H   0  0  0  0  0  0  0  0  0  0  0  0  # atno 8328 bound_to 8319
  115.0670  241.7832  318.3180 H   0  0  0  0  0  0  0  0  0  0  0  0  # atno 8428 bound_to 8423
  115.5804  245.7267  318.8463 H   0  0  0  0  0  0  0  0  0  0  0  0  # atno 8452 bound_to 8445
  111.6952  247.5417  318.7399 H   0  0  0  0  0  0  0  0  0  0  0  0  # atno 8482 bound_to 8476
  110.5642  245.1208  316.7443 H   0  0  0  0  0  0  0  0  0  0  0  0  # atno 8486 bound_to 8481
  109.9114  248.5936  317.3070 H   0  0  0  0  0  0  0  0  0  0  0  0  # atno 8508 bound_to 8500
  110.5712  251.2833  318.3474 H   0  0  0  0  0  0  0  0  0  0  0  0  # atno 8536 bound_to 8528
  111.5283  254.5733  319.6294 H   0  0  0  0  0  0  0  0  0  0  0  0  # atno 8570 bound_to 8562
  115.4922  247.8226  315.9977 H   0  0  0  0  0  0  0  0  0  0  0  0  # atno 8948 bound_to 8937
  118.4560  246.6876  315.7890 H   0  0  0  0  0  0  0  0  0  0  0  0  # atno 8978 bound_to 8972
  120.9298  244.0933  315.3873 H   0  0  0  0  0  0  0  0  0  0  0  0  # atno 8982 bound_to 8977
  120.3276  244.4088  319.2486 H   0  0  0  0  0  0  0  0  0  0  0  0  # atno 8996 bound_to 8992
  123.6815  242.8066  320.6871 H   0  0  0  0  0  0  0  0  0  0  0  0  # atno 9030 bound_to 9016
  122.5585  238.7138  322.1608 H   0  0  0  0  0  0  0  0  0  0  0  0  # atno 9074 bound_to 9062
  115.0385  237.2940  321.8242 H   0  0  0  0  0  0  0  0  0  0  0  0  # atno 9082 bound_to 9073
  121.3708  240.5513  326.1409 H   0  0  0  0  0  0  0  0  0  0  0  0  # atno 9108 bound_to 9100
  123.0204  237.3898  329.0696 H   0  0  0  0  0  0  0  0  0  0  0  0  # atno 9134 bound_to 9130
  118.4923  237.0202  329.4047 H   0  0  0  0  0  0  0  0  0  0  0  0  # atno 9186 bound_to 9177
  116.3549  236.8179  328.9166 H   0  0  0  0  0  0  0  0  0  0  0  0  # atno 9214 bound_to 9206
  126.5406  237.4980  324.7248 H   0  0  0  0  0  0  0  0  0  0  0  0  # atno 11050 bound_to 11043
  109.6311  256.8813  324.7494 H   0  0  0  0  0  0  0  0  0  0  0  0  # atno 12864 bound_to 12852
  111.4549  250.6468  328.2703 H   0  0  0  0  0  0  0  0  0  0  0  0  # atno 12872 bound_to 12863
  106.9372  254.0748  322.4741 H   0  0  0  0  0  0  0  0  0  0  0  0  # atno 12900 bound_to 12891
  118.6278  242.7204  318.0372 LP  0  0  0  0  0  0  0  0  0  0  0  0  # atno 13460 bound_to 8400
  118.1136  243.6344  319.4157 LP  0  0  0  0  0  0  0  0  0  0  0  0  # atno 13461 bound_to 8400
  116.6160  242.3633  318.8781 LP  0  0  0  0  0  0  0  0  0  0  0  0  # atno 13462 bound_to 8423
  114.4598  244.5108  318.2784 LP  0  0  0  0  0  0  0  0  0  0  0  0  # atno 13463 bound_to 8445
  116.4593  245.7257  316.8863 LP  0  0  0  0  0  0  0  0  0  0  0  0  # atno 13464 bound_to 8940
  116.6448  246.8199  318.2160 LP  0  0  0  0  0  0  0  0  0  0  0  0  # atno 13465 bound_to 8940
  120.9020  244.5379  317.6009 LP  0  0  0  0  0  0  0  0  0  0  0  0  # atno 13466 bound_to 8992
  122.8778  240.9609  318.3288 LP  0  0  0  0  0  0  0  0  0  0  0  0  # atno 13467 bound_to 8995
  121.9907  242.1621  317.4513 LP  0  0  0  0  0  0  0  0  0  0  0  0  # atno 13468 bound_to 8995
  122.0865  242.6668  319.9914 LP  0  0  0  0  0  0  0  0  0  0  0  0  # atno 13469 bound_to 9016
  121.8668  242.5168  322.5851 LP  0  0  0  0  0  0  0  0  0  0  0  0  # atno 13470 bound_to 9019
  122.6957  241.6661  323.8458 LP  0  0  0  0  0  0  0  0  0  0  0  0  # atno 13471 bound_to 9019
  121.9959  240.3697  322.1768 LP  0  0  0  0  0  0  0  0  0  0  0  0  # atno 13472 bound_to 9062
  124.2575  239.3322  324.4920 LP  0  0  0  0  0  0  0  0  0  0  0  0  # atno 13473 bound_to 9065
  123.7751  237.8543  325.2557 LP  0  0  0  0  0  0  0  0  0  0  0  0  # atno 13474 bound_to 9065
  115.0209  238.9151  321.9668 LP  0  0  0  0  0  0  0  0  0  0  0  0  # atno 13475 bound_to 9073
  114.6556  237.9755  323.2515 LP  0  0  0  0  0  0  0  0  0  0  0  0  # atno 13476 bound_to 9073
  122.1159  239.1545  325.3970 LP  0  0  0  0  0  0  0  0  0  0  0  0  # atno 13477 bound_to 9100
  119.8716  238.6288  328.4146 LP  0  0  0  0  0  0  0  0  0  0  0  0  # atno 13478 bound_to 9103
  120.0379  237.6386  327.0033 LP  0  0  0  0  0  0  0  0  0  0  0  0  # atno 13479 bound_to 9103
  118.6853  238.5194  330.2744 LP  0  0  0  0  0  0  0  0  0  0  0  0  # atno 13480 bound_to 9177
  124.7583  247.3613  328.4105 LP  0  0  0  0  0  0  0  0  0  0  0  0  # atno 13489 bound_to 3592
  119.4177  247.4313  317.0430 LP  0  0  0  0  0  0  0  0  0  0  0  0  # atno 13490 bound_to 8972
  122.6062  245.9576  317.4024 LP  0  0  0  0  0  0  0  0  0  0  0  0  # atno 13491 bound_to 8975
  121.4297  246.5050  316.2551 LP  0  0  0  0  0  0  0  0  0  0  0  0  # atno 13492 bound_to 8975
  121.0198  236.3579  319.3914 LP  0  0  0  0  0  0  0  0  0  0  0  0  # atno 13493 bound_to 8345
  120.3067  237.8690  318.9353 LP  0  0  0  0  0  0  0  0  0  0  0  0  # atno 13494 bound_to 8345
  122.0967  237.6198  327.6026 LP  0  0  0  0  0  0  0  0  0  0  0  0  # atno 13495 bound_to 9130
  125.9742  246.6539  318.8568 LP  0  0  0  0  0  0  0  0  0  0  0  0  # atno 13496 bound_to 4885
  125.8461  245.2700  317.9993 LP  0  0  0  0  0  0  0  0  0  0  0  0  # atno 13497 bound_to 4885
  119.9803  245.1511  314.5957 LP  0  0  0  0  0  0  0  0  0  0  0  0  # atno 13498 bound_to 8977
  119.7893  243.5460  314.3641 LP  0  0  0  0  0  0  0  0  0  0  0  0  # atno 13499 bound_to 8977
  121.9723  248.6729  329.8939 LP  0  0  0  0  0  0  0  0  0  0  0  0  # atno 13500 bound_to 3563
  113.6179  248.8111  317.3507 LP  0  0  0  0  0  0  0  0  0  0  0  0  # atno 13501 bound_to 8448
  114.7069  247.4757  317.1751 LP  0  0  0  0  0  0  0  0  0  0  0  0  # atno 13502 bound_to 8448
  118.6590  249.4035  330.9757 LP  0  0  0  0  0  0  0  0  0  0  0  0  # atno 13503 bound_to 3502
  119.9381  248.8628  329.9406 LP  0  0  0  0  0  0  0  0  0  0  0  0  # atno 13504 bound_to 3502
  119.5227  251.2321  328.9269 LP  0  0  0  0  0  0  0  0  0  0  0  0  # atno 13505 bound_to 3542
  112.9978  243.3058  317.2151 LP  0  0  0  0  0  0  0  0  0  0  0  0  # atno 13506 bound_to 8426
  112.8685  244.9889  316.8274 LP  0  0  0  0  0  0  0  0  0  0  0  0  # atno 13507 bound_to 8426
  112.1407  246.1800  317.7431 LP  0  0  0  0  0  0  0  0  0  0  0  0  # atno 13510 bound_to 8476
  115.7846  249.3545  315.2102 LP  0  0  0  0  0  0  0  0  0  0  0  0  # atno 13511 bound_to 8937
  110.7736  245.2095  319.6490 LP  0  0  0  0  0  0  0  0  0  0  0  0  # atno 13514 bound_to 5543
  109.6750  246.5175  319.3625 LP  0  0  0  0  0  0  0  0  0  0  0  0  # atno 13515 bound_to 5543
  110.7713  251.2837  329.6029 LP  0  0  0  0  0  0  0  0  0  0  0  0  # atno 13516 bound_to 12863
  112.1019  251.9739  328.9550 LP  0  0  0  0  0  0  0  0  0  0  0  0  # atno 13517 bound_to 12863
  106.7566  243.0219  321.8247 LP  0  0  0  0  0  0  0  0  0  0  0  0  # atno 13518 bound_to 5545
  107.9783  242.9133  320.7467 LP  0  0  0  0  0  0  0  0  0  0  0  0  # atno 13519 bound_to 5545
  108.3980  243.2807  318.1006 LP  0  0  0  0  0  0  0  0  0  0  0  0  # atno 13520 bound_to 5565
  112.9597  238.3474  321.7290 LP  0  0  0  0  0  0  0  0  0  0  0  0  # atno 13523 bound_to 8319
  111.6721  237.3494  321.8414 LP  0  0  0  0  0  0  0  0  0  0  0  0  # atno 13524 bound_to 8319
  114.4458  238.3712  328.5378 LP  0  0  0  0  0  0  0  0  0  0  0  0  # atno 13525 bound_to 9180
  114.3136  236.6597  328.7687 LP  0  0  0  0  0  0  0  0  0  0  0  0  # atno 13526 bound_to 9180
  107.0460  243.8420  317.6273 LP  0  0  0  0  0  0  0  0  0  0  0  0  # atno 13529 bound_to 5540
  110.4951  248.8096  318.9349 LP  0  0  0  0  0  0  0  0  0  0  0  0  # atno 13530 bound_to 8500
  108.0866  245.9532  316.2618 LP  0  0  0  0  0  0  0  0  0  0  0  0  # atno 13531 bound_to 5517
  106.9003  246.9251  317.0668 LP  0  0  0  0  0  0  0  0  0  0  0  0  # atno 13532 bound_to 5517
  109.5077  245.2171  315.5100 LP  0  0  0  0  0  0  0  0  0  0  0  0  # atno 13533 bound_to 8481
  109.3120  246.1569  316.8310 LP  0  0  0  0  0  0  0  0  0  0  0  0  # atno 13534 bound_to 8481
  108.3407  252.5602  320.4054 LP  0  0  0  0  0  0  0  0  0  0  0  0  # atno 13535 bound_to 8503
  107.1353  251.5756  319.6455 LP  0  0  0  0  0  0  0  0  0  0  0  0  # atno 13536 bound_to 8503
  109.6824  250.8402  319.7812 LP  0  0  0  0  0  0  0  0  0  0  0  0  # atno 13537 bound_to 8528
  108.8883  241.3271  317.0144 LP  0  0  0  0  0  0  0  0  0  0  0  0  # atno 13538 bound_to 5568
  108.8123  242.2463  315.5483 LP  0  0  0  0  0  0  0  0  0  0  0  0  # atno 13539 bound_to 5568
  108.6375  249.7899  316.2288 LP  0  0  0  0  0  0  0  0  0  0  0  0  # atno 13540 bound_to 8479
  109.8322  249.2290  315.1072 LP  0  0  0  0  0  0  0  0  0  0  0  0  # atno 13541 bound_to 8479
  104.5108  252.7716  321.7163 LP  0  0  0  0  0  0  0  0  0  0  0  0  # atno 13545 bound_to 12894
  104.6576  253.2427  323.3765 LP  0  0  0  0  0  0  0  0  0  0  0  0  # atno 13546 bound_to 12894
  109.8065  254.8520  322.1257 LP  0  0  0  0  0  0  0  0  0  0  0  0  # atno 13547 bound_to 12822
  111.1949  255.7057  321.5397 LP  0  0  0  0  0  0  0  0  0  0  0  0  # atno 13548 bound_to 12822
  110.6396  255.6548  324.0215 LP  0  0  0  0  0  0  0  0  0  0  0  0  # atno 13549 bound_to 12852
  107.1960  255.6008  323.2864 LP  0  0  0  0  0  0  0  0  0  0  0  0  # atno 13550 bound_to 12891

> <Gold.Score>
     Fitness  S(hb_ext) S(vdw_ext)  S(hb_int)    S(int)      intcor
     35.11       6.00      21.38       0.00      -0.29      -0.76

> <Gold.Goldscore.Fitness>
35.1123

> <Gold.Goldscore.Internal.Vdw>
-0.4428

> <Gold.Goldscore.Internal.Torsion>
-0.6091

> <Gold.Goldscore.External.Vdw>
21.3813

> <Gold.Goldscore.Internal.HBond>
0.0000

> <Gold.Goldscore.External.HBond>
6.0000

> <Gold.Goldscore.Internal.Correction>
-0.7650

> <Gold.Goldscore.Hbonds>
donor molecule, donor type, donor heavy atom, donor atom, acceptor molecule, acceptor atom, score
      L1  H     8    22       P1 13310  1.00

> <Gold.Goldscore.Internal.Vdw.Weighted>
-0.4428

> <Gold.Goldscore.Internal.Torsion.Weighted>
-0.6091

> <Gold.Goldscore.External.Vdw.Weighted>
29.3992

> <Gold.Goldscore.Internal.HBond.Weighted>
0.0000

> <Gold.Goldscore.External.HBond.Weighted>
6.0000

> <Gold.Goldscore.Internal.Correction.Weighted>
-0.7650

> <Gold.Rescore>
     Score     S(PLP)   S(hbond)     S(cho)   S(metal)  DE(clash)   DE(tors)     intcor
     35.22     -32.82       0.98       0.00       0.00       0.00       0.27       ----

> <Gold.PLP.Fitness>
35.2188

> <Gold.PLP.PLP>
-32.8218

> <Gold.PLP.part.hbond>
-1.0000

> <Gold.PLP.part.metal>
0.0000

> <Gold.PLP.part.buried>
-1.0467

> <Gold.PLP.part.nonpolar>
-32.1952

> <Gold.PLP.part.repulsive>
2.3503

> <Gold.PLP.ligand.clash>
0.0000

> <Gold.PLP.ligand.torsion>
0.2655

> <Gold.PLP.Chemscore.Hbond>
0.9760

> <Gold.PLP.Chemscore.CHOScore>
0.0000

> <Gold.PLP.Chemscore.Metal>
0.0000

> <Gold.Chemscore.Hbonds>
donor molecule, donor type, donor heavy atom, donor atom, acceptor molecule, acceptor atom, score
      L1  H     8    22       P1 13310  0.63

> <Gold.PLP.Chemscore.Internal.Correction>
   9.000000E+99

