#       Name:                CT1002167954
#       Creating user name   hitesit
#       Creation time:       Sun Apr 16 22:52:02 2023


#       File generated by GOLD software.
#

@<TRIPOS>MOLECULE
CT1002167954|ligand_prepared|mol2|1|dock1
    29    30     1
SMALL
NO_CHARGES


@<TRIPOS>ATOM
      1 C1         113.0296 241.1338 325.8894 C.3            1 RES1               0.0000
      2 C2         113.9470 242.0533 325.0578 C.ar           1 RES1               0.0000
      3 C3         111.6064 241.3990 325.4075 C.2            1 RES1               0.0000
      4 C4         113.5152 239.7098 325.6416 C.2            1 RES1               0.0000
      5 C5         113.0907 241.4013 327.4114 C.3            1 RES1               0.0000
      6 C6         114.4746 241.6191 323.8454 C.ar           1 RES1               0.0000
      7 C7         114.2718 243.3371 325.4878 C.ar           1 RES1               0.0000
      8 N8         111.0143 240.4465 324.6315 N.am           1 RES1               0.0000
      9 O9         111.0270 242.4454 325.6713 O.2            1 RES1               0.0000
     10 N10        112.6747 238.8501 324.9842 N.am           1 RES1               0.0000
     11 O11        114.6245 239.3294 325.9951 O.2            1 RES1               0.0000
     12 C12        112.4669 240.2993 328.2531 C.3            1 RES1               0.0000
     13 C13        115.2948 242.4395 323.0889 C.ar           1 RES1               0.0000
     14 C14        115.0925 244.1559 324.7298 C.ar           1 RES1               0.0000
     15 C15        111.4584 239.1628 324.4408 C.2            1 RES1               0.0000
     16 C16        115.6039 243.7085 323.5302 C.ar           1 RES1               0.0000
     17 O17        110.7847 238.3486 323.8161 O.2            1 RES1               0.0000
     18 H18        114.1404 241.5202 327.7071 H              1 RES1               0.0000
     19 H19        112.5732 242.3447 327.6251 H              1 RES1               0.0000
     20 H20        114.2443 240.6227 323.4832 H              1 RES1               0.0000
     21 H21        113.8817 243.7099 326.4288 H              1 RES1               0.0000
     22 H22        110.1625 240.7135 324.1483 H              1 RES1               0.0000
     23 H23        112.9843 237.8879 324.8914 H              1 RES1               0.0000
     24 H24        112.5364 240.5370 329.3126 H              1 RES1               0.0000
     25 H25        111.4158 240.1710 328.0029 H              1 RES1               0.0000
     26 H26        112.9737 239.3514 328.0845 H              1 RES1               0.0000
     27 H27        115.6959 242.0822 322.1462 H              1 RES1               0.0000
     28 H28        115.3336 245.1537 325.0813 H              1 RES1               0.0000
     29 H29        116.2462 244.3512 322.9372 H              1 RES1               0.0000
@<TRIPOS>BOND
    1    1    2 1     
    2    1    3 1     
    3    1    4 1     
    4    1    5 1     
    5    2    6 ar    
    6    2    7 ar    
    7    3    8 1     
    8    3    9 2     
    9    4   10 1     
   10    4   11 2     
   11    5   12 1     
   12    5   18 1     
   13    5   19 1     
   14    6   13 ar    
   15    6   20 1     
   16    7   14 ar    
   17    7   21 1     
   18    8   15 1     
   19    8   22 1     
   20   10   15 1     
   21   10   23 1     
   22   12   24 1     
   23   12   25 1     
   24   12   26 1     
   25   13   16 ar    
   26   13   27 1     
   27   14   16 ar    
   28   14   28 1     
   29   15   17 2     
   30   16   29 1     
@<TRIPOS>SUBSTRUCTURE
      1 RES1           1
@<TRIPOS>SET
DONOR_HYDROGENS      STATIC     ATOMS    <user>   **** ""
2 22 23
ATOM$RED        STATIC     ATOMS    COLORGROUP SYSTEM
2 22 23
@<TRIPOS>COMMENT
> <Gold.Version>
2022.3.0

> <Gold.Id.Protein>
unknown|5adf_clean|pdb

> <Gold.Protein.RotatedTorsions>
[ 8428 8423 8424 8425 ] final  140.52 input   46.96 | X-H torsion
[ 8452 8445 8446 8447 ] final   84.46 input  111.34 | X-H torsion
[ 8996 8992 8993 8994 ] final   60.62 input   44.62 | X-H torsion
[ 9030 9016 9017 9018 ] final  170.99 input   32.56 | X-H torsion
[ 9074 9062 9063 9064 ] final   19.73 input   99.28 | X-H torsion
[ 9082 9073 9072 9070 ] final   -3.19 input   59.99 | X-H torsion
[ 9108 9100 9101 9102 ] final   -3.55 input   89.92 | X-H torsion
[ 9186 9177 9178 9179 ] final  -49.08 input  116.56 | X-H torsion
[ 3596 3592 3593 3594 ] final  147.19 input   84.58 | X-H torsion
[ 8978 8972 8973 8974 ] final   66.60 input   29.23 | X-H torsion
[ 9134 9130 9131 9132 ] final   -9.92 input  126.15 | X-H torsion
[ 4890 4885 4884 4881 ] final  -40.57 input   60.00 | X-H torsion
[ 8982 8977 8976 8973 ] final -175.11 input   60.00 | X-H torsion
[ 3570 3563 3564 3565 ] final  148.79 input  100.61 | X-H torsion
[ 3548 3542 3543 3544 ] final   45.32 input   82.26 | X-H torsion
[ 8482 8476 8477 8478 ] final  -91.22 input   53.28 | X-H torsion
[ 8948 8937 8938 8939 ] final  152.23 input   48.32 | X-H torsion
[ 12872 12863 12862 12860 ] final   86.21 input   60.03 | X-H torsion
[ 5550 5545 5544 5541 ] final  133.01 input   60.00 | X-H torsion
[ 5574 5565 5566 5567 ] final  158.84 input   49.17 | X-H torsion
[ 8328 8319 8318 8316 ] final  138.21 input   60.00 | X-H torsion
[ 5546 5540 5541 5542 ] final  -46.75 input  103.84 | X-H torsion
[ 8508 8500 8501 8502 ] final -130.85 input   63.30 | X-H torsion
[ 8486 8481 8480 8477 ] final -122.95 input   60.02 | X-H torsion
[ 8536 8528 8529 8530 ] final -135.94 input   88.08 | X-H torsion
[ 12864 12852 12853 12854 ] final -135.94 input  106.44 | X-H torsion
[ 12900 12891 12892 12893 ] final  -74.08 input   37.87 | X-H torsion
[ 9214 9206 9207 9208 ] final -158.49 input   89.32 | X-H torsion
[ 11050 11043 11044 11045 ] final  173.21 input   52.80 | X-H torsion
[ 5606 5598 5599 5600 ] final   -4.20 input  119.27 | X-H torsion
[ 8570 8562 8563 8564 ] final  111.79 input   68.50 | X-H torsion
[ 13460 8400 8399 8398 ] final   61.51 input   -0.00 | X-H torsion
[ 13464 8940 8939 8938 ] final   14.10 input   -0.00 | X-H torsion
[ 13467 8995 8994 8993 ] final   99.15 input    0.00 | X-H torsion
[ 13470 9019 9018 9017 ] final   50.33 input    0.00 | X-H torsion
[ 13473 9065 9064 9063 ] final  149.79 input   -0.00 | X-H torsion
[ 13478 9103 9102 9101 ] final -147.35 input   -0.00 | X-H torsion
[ 13491 8975 8974 8973 ] final -169.35 input    0.00 | X-H torsion
[ 13493 8345 8344 8343 ] final    8.21 input    0.00 | X-H torsion
[ 13501 8448 8447 8446 ] final  -30.57 input    0.00 | X-H torsion
[ 13503 3502 3501 3500 ] final  115.94 input    0.00 | X-H torsion
[ 13506 8426 8425 8424 ] final  111.91 input    0.00 | X-H torsion
[ 13514 5543 5542 5541 ] final   -4.61 input   -0.00 | X-H torsion
[ 13525 9180 9179 9178 ] final   38.39 input    0.00 | X-H torsion
[ 13531 5517 5516 5515 ] final  -75.71 input    0.00 | X-H torsion
[ 13535 8503 8502 8501 ] final   60.94 input   -0.00 | X-H torsion
[ 13538 5568 5567 5566 ] final  166.28 input   -0.00 | X-H torsion
[ 13540 8479 8478 8477 ] final  163.22 input   -0.00 | X-H torsion
[ 13545 12894 12893 12892 ] final  -23.33 input    0.00 | X-H torsion
[ 13547 12822 12821 12820 ] final -104.45 input   -0.00 | X-H torsion

> <Gold.Protein.ActiveResidues>
 TRP311  MET341  HIS342  TRP414  ALA417  ARG419  CYS420  VAL421  GLY422  LEU460 
 SER462  ASN481  SER482  GLN483  LEU484  ARG486  ALA502  ASN503  TRP566  TYR567 
 GLY568  LEU569  PRO570  ALA571  VAL572  SER573  ASN574  MET575  LEU576  PHE589 
 SER590  GLY591  TRP592  TYR593  MET594  GLY595  GLU597  ILE598  ARG601  ASP602 
 ARG608  ILE653  VAL654  TRP683  PHE709  GLU710  TYR711  GLN712  ASP714  HEM750 
 H4B760 

> <Gold.Protein.RotatedAtoms>
  121.0080  251.9248  329.3366 H   0  0  0  0  0  0  0  0  0  0  0  0  # atno 3548 bound_to 3542
  121.8911  248.2683  329.7924 H   0  0  0  0  0  0  0  0  0  0  0  0  # atno 3570 bound_to 3563
  123.7823  247.1961  327.6637 H   0  0  0  0  0  0  0  0  0  0  0  0  # atno 3596 bound_to 3592
  124.6575  245.4797  318.3352 H   0  0  0  0  0  0  0  0  0  0  0  0  # atno 4890 bound_to 4885
  106.9163  244.5571  317.3193 H   0  0  0  0  0  0  0  0  0  0  0  0  # atno 5546 bound_to 5540
  107.4954  243.0219  321.7555 H   0  0  0  0  0  0  0  0  0  0  0  0  # atno 5550 bound_to 5545
  109.1253  243.6437  319.5992 H   0  0  0  0  0  0  0  0  0  0  0  0  # atno 5574 bound_to 5565
  111.2023  242.0173  316.6314 H   0  0  0  0  0  0  0  0  0  0  0  0  # atno 5606 bound_to 5598
  112.9511  238.3006  321.7687 H   0  0  0  0  0  0  0  0  0  0  0  0  # atno 8328 bound_to 8319
  116.1120  241.5940  317.9106 H   0  0  0  0  0  0  0  0  0  0  0  0  # atno 8428 bound_to 8423
  115.5715  245.7703  318.7515 H   0  0  0  0  0  0  0  0  0  0  0  0  # atno 8452 bound_to 8445
  112.5178  247.4911  318.3468 H   0  0  0  0  0  0  0  0  0  0  0  0  # atno 8482 bound_to 8476
  110.3949  244.8454  316.0563 H   0  0  0  0  0  0  0  0  0  0  0  0  # atno 8486 bound_to 8481
  109.9227  248.6116  317.3008 H   0  0  0  0  0  0  0  0  0  0  0  0  # atno 8508 bound_to 8500
  109.5940  250.8716  319.7410 H   0  0  0  0  0  0  0  0  0  0  0  0  # atno 8536 bound_to 8528
  110.0582  255.1288  320.2319 H   0  0  0  0  0  0  0  0  0  0  0  0  # atno 8570 bound_to 8562
  115.7106  249.4763  315.6378 H   0  0  0  0  0  0  0  0  0  0  0  0  # atno 8948 bound_to 8937
  119.4841  246.9184  315.7421 H   0  0  0  0  0  0  0  0  0  0  0  0  # atno 8978 bound_to 8972
  119.7565  243.5914  314.3409 H   0  0  0  0  0  0  0  0  0  0  0  0  # atno 8982 bound_to 8977
  120.3051  244.1058  319.1568 H   0  0  0  0  0  0  0  0  0  0  0  0  # atno 8996 bound_to 8992
  123.2850  242.5634  319.5755 H   0  0  0  0  0  0  0  0  0  0  0  0  # atno 9030 bound_to 9016
  123.0538  239.3064  322.5097 H   0  0  0  0  0  0  0  0  0  0  0  0  # atno 9074 bound_to 9062
  114.6946  238.4946  323.1485 H   0  0  0  0  0  0  0  0  0  0  0  0  # atno 9082 bound_to 9073
  121.2104  239.1381  325.8003 H   0  0  0  0  0  0  0  0  0  0  0  0  # atno 9108 bound_to 9100
  121.8597  237.9250  328.6882 H   0  0  0  0  0  0  0  0  0  0  0  0  # atno 9134 bound_to 9130
  118.0805  237.2779  330.3557 H   0  0  0  0  0  0  0  0  0  0  0  0  # atno 9186 bound_to 9177
  116.6205  237.0946  327.5552 H   0  0  0  0  0  0  0  0  0  0  0  0  # atno 9214 bound_to 9206
  126.4154  237.7893  324.7151 H   0  0  0  0  0  0  0  0  0  0  0  0  # atno 11050 bound_to 11043
  110.6685  255.5711  324.2270 H   0  0  0  0  0  0  0  0  0  0  0  0  # atno 12864 bound_to 12852
  112.1912  251.5543  328.4393 H   0  0  0  0  0  0  0  0  0  0  0  0  # atno 12872 bound_to 12863
  106.6984  255.0739  323.6563 H   0  0  0  0  0  0  0  0  0  0  0  0  # atno 12900 bound_to 12891
  118.7801  242.5439  318.3009 LP  0  0  0  0  0  0  0  0  0  0  0  0  # atno 13460 bound_to 8400
  117.9614  243.8109  319.1521 LP  0  0  0  0  0  0  0  0  0  0  0  0  # atno 13461 bound_to 8400
  115.5921  242.5487  319.2773 LP  0  0  0  0  0  0  0  0  0  0  0  0  # atno 13462 bound_to 8423
  114.4685  244.4683  318.3708 LP  0  0  0  0  0  0  0  0  0  0  0  0  # atno 13463 bound_to 8445
  115.9642  246.7818  317.1700 LP  0  0  0  0  0  0  0  0  0  0  0  0  # atno 13464 bound_to 8940
  117.1400  245.7638  317.9323 LP  0  0  0  0  0  0  0  0  0  0  0  0  # atno 13465 bound_to 8940
  120.9238  244.8318  317.6900 LP  0  0  0  0  0  0  0  0  0  0  0  0  # atno 13466 bound_to 8992
  123.2957  241.5280  317.8082 LP  0  0  0  0  0  0  0  0  0  0  0  0  # atno 13467 bound_to 8995
  121.5727  241.5950  317.9718 LP  0  0  0  0  0  0  0  0  0  0  0  0  # atno 13468 bound_to 8995
  122.4764  242.9059  321.0843 LP  0  0  0  0  0  0  0  0  0  0  0  0  # atno 13469 bound_to 9016
  121.8287  242.5020  322.6017 LP  0  0  0  0  0  0  0  0  0  0  0  0  # atno 13470 bound_to 9019
  122.7338  241.6809  323.8292 LP  0  0  0  0  0  0  0  0  0  0  0  0  # atno 13471 bound_to 9019
  121.5145  239.7938  321.8378 LP  0  0  0  0  0  0  0  0  0  0  0  0  # atno 13472 bound_to 9062
  124.3013  239.1416  325.4805 LP  0  0  0  0  0  0  0  0  0  0  0  0  # atno 13473 bound_to 9065
  123.7313  238.0449  324.2671 LP  0  0  0  0  0  0  0  0  0  0  0  0  # atno 13474 bound_to 9065
  114.9013  237.1180  322.3056 LP  0  0  0  0  0  0  0  0  0  0  0  0  # atno 13475 bound_to 9073
  115.1215  238.5640  321.5796 LP  0  0  0  0  0  0  0  0  0  0  0  0  # atno 13476 bound_to 9073
  122.2716  240.5266  325.7277 LP  0  0  0  0  0  0  0  0  0  0  0  0  # atno 13477 bound_to 9100
  119.8638  237.6455  328.4184 LP  0  0  0  0  0  0  0  0  0  0  0  0  # atno 13478 bound_to 9103
  120.0457  238.6219  326.9994 LP  0  0  0  0  0  0  0  0  0  0  0  0  # atno 13479 bound_to 9103
  119.0925  238.2645  329.3342 LP  0  0  0  0  0  0  0  0  0  0  0  0  # atno 13480 bound_to 9177
  124.8398  248.5265  328.0632 LP  0  0  0  0  0  0  0  0  0  0  0  0  # atno 13489 bound_to 3592
  118.4097  247.2050  317.0890 LP  0  0  0  0  0  0  0  0  0  0  0  0  # atno 13490 bound_to 8972
  122.6422  245.7830  317.2280 LP  0  0  0  0  0  0  0  0  0  0  0  0  # atno 13491 bound_to 8975
  121.3937  246.6796  316.4296 LP  0  0  0  0  0  0  0  0  0  0  0  0  # atno 13492 bound_to 8975
  121.0531  236.3619  319.3458 LP  0  0  0  0  0  0  0  0  0  0  0  0  # atno 13493 bound_to 8345
  120.2734  237.8649  318.9809 LP  0  0  0  0  0  0  0  0  0  0  0  0  # atno 13494 bound_to 8345
  123.2257  237.0992  327.9737 LP  0  0  0  0  0  0  0  0  0  0  0  0  # atno 13495 bound_to 9130
  125.4152  246.7499  319.0146 LP  0  0  0  0  0  0  0  0  0  0  0  0  # atno 13496 bound_to 4885
  126.2677  245.6460  318.1652 LP  0  0  0  0  0  0  0  0  0  0  0  0  # atno 13497 bound_to 4885
  120.9282  244.0332  315.3799 LP  0  0  0  0  0  0  0  0  0  0  0  0  # atno 13498 bound_to 8977
  120.0231  245.1695  314.6340 LP  0  0  0  0  0  0  0  0  0  0  0  0  # atno 13499 bound_to 8977
  122.7251  248.9971  328.4378 LP  0  0  0  0  0  0  0  0  0  0  0  0  # atno 13500 bound_to 3563
  114.6479  248.1957  317.9781 LP  0  0  0  0  0  0  0  0  0  0  0  0  # atno 13501 bound_to 8448
  113.6769  248.0911  316.5477 LP  0  0  0  0  0  0  0  0  0  0  0  0  # atno 13502 bound_to 8448
  119.0345  248.9389  329.6565 LP  0  0  0  0  0  0  0  0  0  0  0  0  # atno 13503 bound_to 3502
  119.5626  249.3273  331.2597 LP  0  0  0  0  0  0  0  0  0  0  0  0  # atno 13504 bound_to 3502
  119.5397  250.9802  329.2864 LP  0  0  0  0  0  0  0  0  0  0  0  0  # atno 13505 bound_to 3542
  112.6089  243.8444  317.7649 LP  0  0  0  0  0  0  0  0  0  0  0  0  # atno 13506 bound_to 8426
  113.2574  244.4504  316.2775 LP  0  0  0  0  0  0  0  0  0  0  0  0  # atno 13507 bound_to 8426
  111.3310  246.2298  318.1300 LP  0  0  0  0  0  0  0  0  0  0  0  0  # atno 13510 bound_to 8476
  115.5709  247.7364  315.5625 LP  0  0  0  0  0  0  0  0  0  0  0  0  # atno 13511 bound_to 8937
  109.6238  246.4538  319.7082 LP  0  0  0  0  0  0  0  0  0  0  0  0  # atno 13514 bound_to 5543
  110.8248  245.2732  319.3033 LP  0  0  0  0  0  0  0  0  0  0  0  0  # atno 13515 bound_to 5543
  110.9408  250.5430  328.6886 LP  0  0  0  0  0  0  0  0  0  0  0  0  # atno 13516 bound_to 12863
  111.1911  251.8010  329.6992 LP  0  0  0  0  0  0  0  0  0  0  0  0  # atno 13517 bound_to 12863
  107.5528  242.8434  320.1392 LP  0  0  0  0  0  0  0  0  0  0  0  0  # atno 13518 bound_to 5545
  106.1123  242.9161  320.9049 LP  0  0  0  0  0  0  0  0  0  0  0  0  # atno 13519 bound_to 5545
  108.4488  243.6462  317.9859 LP  0  0  0  0  0  0  0  0  0  0  0  0  # atno 13520 bound_to 5565
  111.6260  237.3565  321.8006 LP  0  0  0  0  0  0  0  0  0  0  0  0  # atno 13523 bound_to 8319
  111.7686  238.5306  320.6746 LP  0  0  0  0  0  0  0  0  0  0  0  0  # atno 13524 bound_to 8319
  114.4339  238.3381  328.3880 LP  0  0  0  0  0  0  0  0  0  0  0  0  # atno 13525 bound_to 9180
  114.3256  236.6929  328.9185 LP  0  0  0  0  0  0  0  0  0  0  0  0  # atno 13526 bound_to 9180
  105.8149  243.9857  318.5471 LP  0  0  0  0  0  0  0  0  0  0  0  0  # atno 13529 bound_to 5540
  110.4839  248.7917  318.9410 LP  0  0  0  0  0  0  0  0  0  0  0  0  # atno 13530 bound_to 8500
  108.0901  245.9527  316.2676 LP  0  0  0  0  0  0  0  0  0  0  0  0  # atno 13531 bound_to 5517
  106.8968  246.9256  317.0609 LP  0  0  0  0  0  0  0  0  0  0  0  0  # atno 13532 bound_to 5517
  109.0648  245.7549  315.8265 LP  0  0  0  0  0  0  0  0  0  0  0  0  # atno 13533 bound_to 8481
  109.9254  245.8963  317.2071 LP  0  0  0  0  0  0  0  0  0  0  0  0  # atno 13534 bound_to 8481
  107.5579  251.4044  320.5521 LP  0  0  0  0  0  0  0  0  0  0  0  0  # atno 13535 bound_to 8503
  107.9181  252.7314  319.4989 LP  0  0  0  0  0  0  0  0  0  0  0  0  # atno 13536 bound_to 8503
  110.6484  251.2473  318.4034 LP  0  0  0  0  0  0  0  0  0  0  0  0  # atno 13537 bound_to 8528
  109.0753  241.7827  315.4451 LP  0  0  0  0  0  0  0  0  0  0  0  0  # atno 13538 bound_to 5568
  108.6253  241.7907  317.1177 LP  0  0  0  0  0  0  0  0  0  0  0  0  # atno 13539 bound_to 5568
  108.5957  249.7181  316.2139 LP  0  0  0  0  0  0  0  0  0  0  0  0  # atno 13540 bound_to 8479
  109.8740  249.3008  315.1221 LP  0  0  0  0  0  0  0  0  0  0  0  0  # atno 13541 bound_to 8479
  105.3931  253.0427  322.2391 LP  0  0  0  0  0  0  0  0  0  0  0  0  # atno 13545 bound_to 12894
  103.7753  252.9716  322.8537 LP  0  0  0  0  0  0  0  0  0  0  0  0  # atno 13546 bound_to 12894
  109.8132  255.7478  321.5929 LP  0  0  0  0  0  0  0  0  0  0  0  0  # atno 13547 bound_to 12822
  111.1882  254.8099  322.0725 LP  0  0  0  0  0  0  0  0  0  0  0  0  # atno 13548 bound_to 12822
  109.6241  256.9374  324.5329 LP  0  0  0  0  0  0  0  0  0  0  0  0  # atno 13549 bound_to 12852
  107.4290  254.6259  322.1329 LP  0  0  0  0  0  0  0  0  0  0  0  0  # atno 13550 bound_to 12891

> <Gold.Score>
     Fitness  S(hb_ext) S(vdw_ext)  S(hb_int)    S(int)      intcor
     36.99       0.63      26.79       0.00      -0.47      -0.76

> <Gold.Goldscore.Fitness>
36.9947

> <Gold.Goldscore.Internal.Vdw>
-0.5667

> <Gold.Goldscore.Internal.Torsion>
-0.6715

> <Gold.Goldscore.External.Vdw>
26.7942

> <Gold.Goldscore.Internal.HBond>
0.0000

> <Gold.Goldscore.External.HBond>
0.6258

> <Gold.Goldscore.Internal.Correction>
-0.7650

> <Gold.Goldscore.Hbonds>
donor molecule, donor type, donor heavy atom, donor atom, acceptor molecule, acceptor atom, score
      P1  H  9073  9082       L1    11  0.01
      P1  H  5687  5700       L1    17  0.02
      P1  H  9513  9527       L1    17  0.03
      L1  H    10    23       P1  9345  0.05

> <Gold.Goldscore.Internal.Vdw.Weighted>
-0.5667

> <Gold.Goldscore.Internal.Torsion.Weighted>
-0.6715

> <Gold.Goldscore.External.Vdw.Weighted>
36.8421

> <Gold.Goldscore.Internal.HBond.Weighted>
0.0000

> <Gold.Goldscore.External.HBond.Weighted>
0.6258

> <Gold.Goldscore.Internal.Correction.Weighted>
-0.7650

> <Gold.Rescore>
     Score     S(PLP)   S(hbond)     S(cho)   S(metal)  DE(clash)   DE(tors)     intcor
      8.29     -10.28       0.13       0.00       0.00       0.00       1.20       ----

> <Gold.PLP.Fitness>
8.2949

> <Gold.PLP.PLP>
-10.2816

> <Gold.PLP.part.hbond>
-2.4341

> <Gold.PLP.part.metal>
0.0000

> <Gold.PLP.part.buried>
11.1579

> <Gold.PLP.part.nonpolar>
-25.4256

> <Gold.PLP.part.repulsive>
1.8973

> <Gold.PLP.ligand.clash>
0.0000

> <Gold.PLP.ligand.torsion>
1.1952

> <Gold.PLP.Chemscore.Hbond>
0.1346

> <Gold.PLP.Chemscore.CHOScore>
0.0000

> <Gold.PLP.Chemscore.Metal>
0.0000

> <Gold.Chemscore.Hbonds>
donor molecule, donor type, donor heavy atom, donor atom, acceptor molecule, acceptor atom, score
      L1  H    10    23       P1  9345  0.64
      P1  H  5687  5700       L1    17  0.51
      P1  H  9513  9527       L1    17  0.29

> <Gold.PLP.Chemscore.Internal.Correction>
   9.000000E+99

