#       Name:                CT1002167954
#       Creating user name   hitesit
#       Creation time:       Sun Apr 16 22:52:05 2023


#       File generated by GOLD software.
#

@<TRIPOS>MOLECULE
CT1002167954|ligand_prepared|mol2|1|dock4
    29    30     1
SMALL
NO_CHARGES


@<TRIPOS>ATOM
      1 C1         113.2036 241.8218 325.8622 C.3            1 RES1               0.0000
      2 C2         114.1463 242.5686 324.8966 C.ar           1 RES1               0.0000
      3 C3         111.7884 242.0445 325.3370 C.2            1 RES1               0.0000
      4 C4         113.6491 240.3637 325.8508 C.2            1 RES1               0.0000
      5 C5         113.2720 242.3309 327.3208 C.3            1 RES1               0.0000
      6 C6         114.6871 243.8022 325.2468 C.ar           1 RES1               0.0000
      7 C7         114.4860 242.0364 323.6556 C.ar           1 RES1               0.0000
      8 N8         111.1698 240.9955 324.7231 N.am           1 RES1               0.0000
      9 O9         111.2385 243.1355 325.4250 O.2            1 RES1               0.0000
     10 N10        112.7849 239.4322 325.3376 N.am           1 RES1               0.0000
     11 O11        114.7473 240.0152 326.2663 O.2            1 RES1               0.0000
     12 C12        112.5611 241.4303 328.3186 C.3            1 RES1               0.0000
     13 C13        115.5389 244.4779 324.3888 C.ar           1 RES1               0.0000
     14 C14        115.3378 242.7139 322.7990 C.ar           1 RES1               0.0000
     15 C15        111.5779 239.6861 324.7451 C.2            1 RES1               0.0000
     16 C16        115.8652 243.9341 323.1647 C.ar           1 RES1               0.0000
     17 O17        110.8817 238.8002 324.2576 O.2            1 RES1               0.0000
     18 H18        114.3252 242.4210 327.6143 H              1 RES1               0.0000
     19 H19        112.8244 243.3314 327.3670 H              1 RES1               0.0000
     20 H20        114.4398 244.2469 326.2049 H              1 RES1               0.0000
     21 H21        114.0822 241.0783 323.3465 H              1 RES1               0.0000
     22 H22        110.3259 241.2039 324.1991 H              1 RES1               0.0000
     23 H23        113.0674 238.4595 325.4035 H              1 RES1               0.0000
     24 H24        112.6396 241.8333 329.3261 H              1 RES1               0.0000
     25 H25        111.5055 241.3385 328.0715 H              1 RES1               0.0000
     26 H26        112.9974 240.4335 328.3174 H              1 RES1               0.0000
     27 H27        115.9502 245.4385 324.6807 H              1 RES1               0.0000
     28 H28        115.5914 242.2824 321.8363 H              1 RES1               0.0000
     29 H29        116.5328 244.4634 322.4929 H              1 RES1               0.0000
@<TRIPOS>BOND
    1    1    2 1     
    2    1    3 1     
    3    1    4 1     
    4    1    5 1     
    5    2    6 ar    
    6    2    7 ar    
    7    3    8 1     
    8    3    9 2     
    9    4   10 1     
   10    4   11 2     
   11    5   12 1     
   12    5   18 1     
   13    5   19 1     
   14    6   13 ar    
   15    6   20 1     
   16    7   14 ar    
   17    7   21 1     
   18    8   15 1     
   19    8   22 1     
   20   10   15 1     
   21   10   23 1     
   22   12   24 1     
   23   12   25 1     
   24   12   26 1     
   25   13   16 ar    
   26   13   27 1     
   27   14   16 ar    
   28   14   28 1     
   29   15   17 2     
   30   16   29 1     
@<TRIPOS>SUBSTRUCTURE
      1 RES1           1
@<TRIPOS>SET
DONOR_HYDROGENS      STATIC     ATOMS    <user>   **** ""
2 22 23
ATOM$RED        STATIC     ATOMS    COLORGROUP SYSTEM
2 22 23
@<TRIPOS>COMMENT
> <Gold.Version>
2022.3.0

> <Gold.Id.Protein>
unknown|5adf_clean|pdb

> <Gold.Protein.RotatedTorsions>
[ 8428 8423 8424 8425 ] final  -19.75 input   46.96 | X-H torsion
[ 8452 8445 8446 8447 ] final  170.30 input  111.34 | X-H torsion
[ 8996 8992 8993 8994 ] final  101.95 input   44.62 | X-H torsion
[ 9030 9016 9017 9018 ] final -114.31 input   32.56 | X-H torsion
[ 9074 9062 9063 9064 ] final -171.36 input   99.28 | X-H torsion
[ 9082 9073 9072 9070 ] final    5.51 input   59.99 | X-H torsion
[ 9108 9100 9101 9102 ] final -136.05 input   89.92 | X-H torsion
[ 9186 9177 9178 9179 ] final  -51.61 input  116.56 | X-H torsion
[ 3596 3592 3593 3594 ] final  -30.18 input   84.58 | X-H torsion
[ 8978 8972 8973 8974 ] final   16.52 input   29.23 | X-H torsion
[ 9134 9130 9131 9132 ] final    7.18 input  126.15 | X-H torsion
[ 4890 4885 4884 4881 ] final -123.71 input   60.00 | X-H torsion
[ 8982 8977 8976 8973 ] final  171.51 input   60.00 | X-H torsion
[ 3570 3563 3564 3565 ] final  -18.64 input  100.61 | X-H torsion
[ 3548 3542 3543 3544 ] final -104.46 input   82.26 | X-H torsion
[ 8482 8476 8477 8478 ] final  130.73 input   53.28 | X-H torsion
[ 8948 8937 8938 8939 ] final  -45.83 input   48.32 | X-H torsion
[ 12872 12863 12862 12860 ] final  127.75 input   60.03 | X-H torsion
[ 5550 5545 5544 5541 ] final   91.63 input   60.00 | X-H torsion
[ 5574 5565 5566 5567 ] final -171.51 input   49.17 | X-H torsion
[ 8328 8319 8318 8316 ] final  156.17 input   60.00 | X-H torsion
[ 5546 5540 5541 5542 ] final  103.89 input  103.84 | X-H torsion
[ 8508 8500 8501 8502 ] final   28.11 input   63.30 | X-H torsion
[ 8486 8481 8480 8477 ] final   47.24 input   60.02 | X-H torsion
[ 8536 8528 8529 8530 ] final -115.94 input   88.08 | X-H torsion
[ 12864 12852 12853 12854 ] final  127.15 input  106.44 | X-H torsion
[ 12900 12891 12892 12893 ] final  -21.25 input   37.87 | X-H torsion
[ 9214 9206 9207 9208 ] final -178.28 input   89.32 | X-H torsion
[ 11050 11043 11044 11045 ] final  -47.21 input   52.80 | X-H torsion
[ 5606 5598 5599 5600 ] final  -70.06 input  119.27 | X-H torsion
[ 8570 8562 8563 8564 ] final   25.24 input   68.50 | X-H torsion
[ 13460 8400 8399 8398 ] final -155.90 input   -0.00 | X-H torsion
[ 13464 8940 8939 8938 ] final  -84.26 input   -0.00 | X-H torsion
[ 13467 8995 8994 8993 ] final  170.18 input    0.00 | X-H torsion
[ 13470 9019 9018 9017 ] final -177.90 input    0.00 | X-H torsion
[ 13473 9065 9064 9063 ] final  -23.76 input   -0.00 | X-H torsion
[ 13478 9103 9102 9101 ] final -105.85 input   -0.00 | X-H torsion
[ 13491 8975 8974 8973 ] final  171.12 input    0.00 | X-H torsion
[ 13493 8345 8344 8343 ] final -170.55 input    0.00 | X-H torsion
[ 13501 8448 8447 8446 ] final   69.82 input    0.00 | X-H torsion
[ 13503 3502 3501 3500 ] final   26.21 input    0.00 | X-H torsion
[ 13506 8426 8425 8424 ] final  -40.01 input    0.00 | X-H torsion
[ 13514 5543 5542 5541 ] final   45.72 input   -0.00 | X-H torsion
[ 13525 9180 9179 9178 ] final  -47.17 input    0.00 | X-H torsion
[ 13531 5517 5516 5515 ] final  -48.41 input    0.00 | X-H torsion
[ 13535 8503 8502 8501 ] final  -62.55 input   -0.00 | X-H torsion
[ 13538 5568 5567 5566 ] final   19.01 input   -0.00 | X-H torsion
[ 13540 8479 8478 8477 ] final  135.65 input   -0.00 | X-H torsion
[ 13545 12894 12893 12892 ] final    7.62 input    0.00 | X-H torsion
[ 13547 12822 12821 12820 ] final  132.75 input   -0.00 | X-H torsion

> <Gold.Protein.ActiveResidues>
 TRP311  MET341  HIS342  TRP414  ALA417  ARG419  CYS420  VAL421  GLY422  LEU460 
 SER462  ASN481  SER482  GLN483  LEU484  ARG486  ALA502  ASN503  TRP566  TYR567 
 GLY568  LEU569  PRO570  ALA571  VAL572  SER573  ASN574  MET575  LEU576  PHE589 
 SER590  GLY591  TRP592  TYR593  MET594  GLY595  GLU597  ILE598  ARG601  ASP602 
 ARG608  ILE653  VAL654  TRP683  PHE709  GLU710  TYR711  GLN712  ASP714  HEM750 
 H4B760 

> <Gold.Protein.RotatedAtoms>
  119.7416  250.8349  329.6681 H   0  0  0  0  0  0  0  0  0  0  0  0  # atno 3548 bound_to 3542
  122.7274  248.8286  328.3410 H   0  0  0  0  0  0  0  0  0  0  0  0  # atno 3570 bound_to 3563
  124.8247  248.5622  328.0445 H   0  0  0  0  0  0  0  0  0  0  0  0  # atno 3596 bound_to 3592
  124.8654  246.5299  318.9667 H   0  0  0  0  0  0  0  0  0  0  0  0  # atno 4890 bound_to 4885
  106.0984  243.6485  318.5052 H   0  0  0  0  0  0  0  0  0  0  0  0  # atno 5546 bound_to 5540
  107.9312  242.9711  321.2604 H   0  0  0  0  0  0  0  0  0  0  0  0  # atno 5550 bound_to 5545
  109.1788  244.0699  319.4514 H   0  0  0  0  0  0  0  0  0  0  0  0  # atno 5574 bound_to 5565
  110.5483  242.6855  316.4139 H   0  0  0  0  0  0  0  0  0  0  0  0  # atno 5606 bound_to 5598
  112.9358  238.4965  321.5525 H   0  0  0  0  0  0  0  0  0  0  0  0  # atno 8328 bound_to 8319
  115.3189  242.4591  319.1926 H   0  0  0  0  0  0  0  0  0  0  0  0  # atno 8428 bound_to 8423
  115.1583  244.8317  319.3865 H   0  0  0  0  0  0  0  0  0  0  0  0  # atno 8452 bound_to 8445
  111.8543  246.0834  317.8212 H   0  0  0  0  0  0  0  0  0  0  0  0  # atno 8482 bound_to 8476
  109.2926  246.1563  316.7979 H   0  0  0  0  0  0  0  0  0  0  0  0  # atno 8486 bound_to 8481
  110.6425  249.0326  318.8051 H   0  0  0  0  0  0  0  0  0  0  0  0  # atno 8508 bound_to 8500
  109.3993  251.0208  319.5604 H   0  0  0  0  0  0  0  0  0  0  0  0  # atno 8536 bound_to 8528
  111.2690  255.0575  320.2762 H   0  0  0  0  0  0  0  0  0  0  0  0  # atno 8570 bound_to 8562
  115.6310  247.7677  315.2961 H   0  0  0  0  0  0  0  0  0  0  0  0  # atno 8948 bound_to 8937
  119.8018  247.2380  316.3373 H   0  0  0  0  0  0  0  0  0  0  0  0  # atno 8978 bound_to 8972
  119.8896  243.4589  314.4519 H   0  0  0  0  0  0  0  0  0  0  0  0  # atno 8982 bound_to 8977
  120.3889  244.7223  319.2334 H   0  0  0  0  0  0  0  0  0  0  0  0  # atno 8996 bound_to 8992
  122.2324  242.6157  319.7494 H   0  0  0  0  0  0  0  0  0  0  0  0  # atno 9030 bound_to 9016
  121.4695  239.6324  321.8020 H   0  0  0  0  0  0  0  0  0  0  0  0  # atno 9074 bound_to 9062
  114.7162  238.6150  323.0763 H   0  0  0  0  0  0  0  0  0  0  0  0  # atno 9082 bound_to 9073
  122.5717  239.9526  325.4497 H   0  0  0  0  0  0  0  0  0  0  0  0  # atno 9108 bound_to 9100
  122.0029  237.8899  328.9066 H   0  0  0  0  0  0  0  0  0  0  0  0  # atno 9134 bound_to 9130
  118.0796  237.3069  330.3814 H   0  0  0  0  0  0  0  0  0  0  0  0  # atno 9186 bound_to 9177
  116.8788  236.9818  327.4351 H   0  0  0  0  0  0  0  0  0  0  0  0  # atno 9214 bound_to 9206
  125.7403  236.6156  325.6600 H   0  0  0  0  0  0  0  0  0  0  0  0  # atno 11050 bound_to 11043
  110.0890  256.1618  325.2571 H   0  0  0  0  0  0  0  0  0  0  0  0  # atno 12864 bound_to 12852
  112.0979  251.9690  328.9496 H   0  0  0  0  0  0  0  0  0  0  0  0  # atno 12872 bound_to 12863
  106.5184  254.3599  323.3782 H   0  0  0  0  0  0  0  0  0  0  0  0  # atno 12900 bound_to 12891
  117.8647  243.8702  318.6084 LP  0  0  0  0  0  0  0  0  0  0  0  0  # atno 13460 bound_to 8400
  118.8767  242.4845  318.8445 LP  0  0  0  0  0  0  0  0  0  0  0  0  # atno 13461 bound_to 8400
  116.3692  241.7012  318.0212 LP  0  0  0  0  0  0  0  0  0  0  0  0  # atno 13462 bound_to 8423
  114.8710  245.3825  317.7523 LP  0  0  0  0  0  0  0  0  0  0  0  0  # atno 13463 bound_to 8445
  116.7066  246.7603  318.2500 LP  0  0  0  0  0  0  0  0  0  0  0  0  # atno 13464 bound_to 8940
  116.3975  245.7854  316.8522 LP  0  0  0  0  0  0  0  0  0  0  0  0  # atno 13465 bound_to 8940
  120.8425  244.2338  317.6157 LP  0  0  0  0  0  0  0  0  0  0  0  0  # atno 13466 bound_to 8992
  122.7390  240.9174  318.3823 LP  0  0  0  0  0  0  0  0  0  0  0  0  # atno 13467 bound_to 8995
  122.1295  242.2055  317.3978 LP  0  0  0  0  0  0  0  0  0  0  0  0  # atno 13468 bound_to 8995
  123.5113  242.8546  320.9134 LP  0  0  0  0  0  0  0  0  0  0  0  0  # atno 13469 bound_to 9016
  122.0333  241.5934  323.8791 LP  0  0  0  0  0  0  0  0  0  0  0  0  # atno 13470 bound_to 9019
  122.5292  242.5895  322.5518 LP  0  0  0  0  0  0  0  0  0  0  0  0  # atno 13471 bound_to 9019
  123.0542  239.4770  322.5255 LP  0  0  0  0  0  0  0  0  0  0  0  0  # atno 13472 bound_to 9062
  123.7508  238.1151  324.2024 LP  0  0  0  0  0  0  0  0  0  0  0  0  # atno 13473 bound_to 9065
  124.2818  239.0715  325.5453 LP  0  0  0  0  0  0  0  0  0  0  0  0  # atno 13474 bound_to 9065
  114.8637  237.1230  322.4434 LP  0  0  0  0  0  0  0  0  0  0  0  0  # atno 13475 bound_to 9073
  115.1374  238.4378  321.5144 LP  0  0  0  0  0  0  0  0  0  0  0  0  # atno 13476 bound_to 9073
  120.9499  239.7358  326.0681 LP  0  0  0  0  0  0  0  0  0  0  0  0  # atno 13477 bound_to 9100
  119.8506  238.2420  328.5618 LP  0  0  0  0  0  0  0  0  0  0  0  0  # atno 13478 bound_to 9103
  120.0589  238.0254  326.8560 LP  0  0  0  0  0  0  0  0  0  0  0  0  # atno 13479 bound_to 9103
  119.0934  238.2359  329.3089 LP  0  0  0  0  0  0  0  0  0  0  0  0  # atno 13480 bound_to 9177
  123.8148  247.1833  327.6888 LP  0  0  0  0  0  0  0  0  0  0  0  0  # atno 13489 bound_to 3592
  118.0982  246.8917  316.5053 LP  0  0  0  0  0  0  0  0  0  0  0  0  # atno 13490 bound_to 8972
  122.5944  245.9918  317.4290 LP  0  0  0  0  0  0  0  0  0  0  0  0  # atno 13491 bound_to 8975
  121.4415  246.4708  316.2285 LP  0  0  0  0  0  0  0  0  0  0  0  0  # atno 13492 bound_to 8975
  120.2628  237.8629  318.9962 LP  0  0  0  0  0  0  0  0  0  0  0  0  # atno 13493 bound_to 8345
  121.0637  236.3640  319.3305 LP  0  0  0  0  0  0  0  0  0  0  0  0  # atno 13494 bound_to 8345
  123.0864  237.1334  327.7612 LP  0  0  0  0  0  0  0  0  0  0  0  0  # atno 13495 bound_to 9130
  126.3674  246.1498  318.4682 LP  0  0  0  0  0  0  0  0  0  0  0  0  # atno 13496 bound_to 4885
  125.1064  245.1891  318.0761 LP  0  0  0  0  0  0  0  0  0  0  0  0  # atno 13497 bound_to 4885
  120.9452  244.2509  315.4035 LP  0  0  0  0  0  0  0  0  0  0  0  0  # atno 13498 bound_to 8977
  119.8721  245.0852  314.4985 LP  0  0  0  0  0  0  0  0  0  0  0  0  # atno 13499 bound_to 8977
  121.9146  248.4542  329.8444 LP  0  0  0  0  0  0  0  0  0  0  0  0  # atno 13500 bound_to 3563
  114.5152  247.4487  316.8849 LP  0  0  0  0  0  0  0  0  0  0  0  0  # atno 13501 bound_to 8448
  113.8095  248.8382  317.6408 LP  0  0  0  0  0  0  0  0  0  0  0  0  # atno 13502 bound_to 8448
  118.4856  249.3427  330.6707 LP  0  0  0  0  0  0  0  0  0  0  0  0  # atno 13503 bound_to 3502
  120.1115  248.9236  330.2456 LP  0  0  0  0  0  0  0  0  0  0  0  0  # atno 13504 bound_to 3502
  120.7807  252.0482  328.9616 LP  0  0  0  0  0  0  0  0  0  0  0  0  # atno 13505 bound_to 3542
  113.3436  244.0393  316.2663 LP  0  0  0  0  0  0  0  0  0  0  0  0  # atno 13506 bound_to 8426
  112.5228  244.2554  317.7761 LP  0  0  0  0  0  0  0  0  0  0  0  0  # atno 13507 bound_to 8426
  111.9841  247.6154  318.6474 LP  0  0  0  0  0  0  0  0  0  0  0  0  # atno 13510 bound_to 8476
  115.6488  249.4082  315.8968 LP  0  0  0  0  0  0  0  0  0  0  0  0  # atno 13511 bound_to 8937
  109.8397  246.0228  320.2652 LP  0  0  0  0  0  0  0  0  0  0  0  0  # atno 13514 bound_to 5543
  110.6089  245.7042  318.7463 LP  0  0  0  0  0  0  0  0  0  0  0  0  # atno 13515 bound_to 5543
  111.4526  250.6389  328.2692 LP  0  0  0  0  0  0  0  0  0  0  0  0  # atno 13516 bound_to 12863
  110.7732  251.2877  329.6050 LP  0  0  0  0  0  0  0  0  0  0  0  0  # atno 13517 bound_to 12863
  106.8991  242.8242  320.0110 LP  0  0  0  0  0  0  0  0  0  0  0  0  # atno 13518 bound_to 5545
  106.3269  242.9865  321.5319 LP  0  0  0  0  0  0  0  0  0  0  0  0  # atno 13519 bound_to 5545
  108.3969  243.2327  318.1293 LP  0  0  0  0  0  0  0  0  0  0  0  0  # atno 13520 bound_to 5565
  111.8612  237.3505  321.9772 LP  0  0  0  0  0  0  0  0  0  0  0  0  # atno 13523 bound_to 8319
  111.5488  238.3393  320.7158 LP  0  0  0  0  0  0  0  0  0  0  0  0  # atno 13524 bound_to 8319
  114.4560  237.8389  329.4530 LP  0  0  0  0  0  0  0  0  0  0  0  0  # atno 13525 bound_to 9180
  114.3035  237.1920  327.8535 LP  0  0  0  0  0  0  0  0  0  0  0  0  # atno 13526 bound_to 9180
  106.6187  244.8788  317.3816 LP  0  0  0  0  0  0  0  0  0  0  0  0  # atno 13529 bound_to 5540
  109.7695  248.3739  317.4481 LP  0  0  0  0  0  0  0  0  0  0  0  0  # atno 13530 bound_to 8500
  107.8202  246.0347  315.9717 LP  0  0  0  0  0  0  0  0  0  0  0  0  # atno 13531 bound_to 5517
  107.1667  246.8437  317.3568 LP  0  0  0  0  0  0  0  0  0  0  0  0  # atno 13532 bound_to 5517
  110.5625  245.1385  316.7784 LP  0  0  0  0  0  0  0  0  0  0  0  0  # atno 13533 bound_to 8481
  109.5370  245.1933  315.5088 LP  0  0  0  0  0  0  0  0  0  0  0  0  # atno 13534 bound_to 8481
  107.3576  252.1843  319.2562 LP  0  0  0  0  0  0  0  0  0  0  0  0  # atno 13535 bound_to 8503
  108.1183  251.9515  320.7948 LP  0  0  0  0  0  0  0  0  0  0  0  0  # atno 13536 bound_to 8503
  110.8410  251.0998  318.5819 LP  0  0  0  0  0  0  0  0  0  0  0  0  # atno 13537 bound_to 8528
  108.4623  242.2105  316.9293 LP  0  0  0  0  0  0  0  0  0  0  0  0  # atno 13538 bound_to 5568
  109.2383  241.3629  315.6334 LP  0  0  0  0  0  0  0  0  0  0  0  0  # atno 13539 bound_to 5568
  108.4842  249.3483  316.0686 LP  0  0  0  0  0  0  0  0  0  0  0  0  # atno 13540 bound_to 8479
  109.9855  249.6706  315.2674 LP  0  0  0  0  0  0  0  0  0  0  0  0  # atno 13541 bound_to 8479
  105.4242  253.1675  322.6829 LP  0  0  0  0  0  0  0  0  0  0  0  0  # atno 13545 bound_to 12894
  103.7441  252.8468  322.4099 LP  0  0  0  0  0  0  0  0  0  0  0  0  # atno 13546 bound_to 12894
  110.4318  254.5385  322.2766 LP  0  0  0  0  0  0  0  0  0  0  0  0  # atno 13547 bound_to 12822
  110.5696  256.0192  321.3888 LP  0  0  0  0  0  0  0  0  0  0  0  0  # atno 13548 bound_to 12822
  110.1914  256.3592  323.5245 LP  0  0  0  0  0  0  0  0  0  0  0  0  # atno 13549 bound_to 12852
  107.6046  255.3226  322.4042 LP  0  0  0  0  0  0  0  0  0  0  0  0  # atno 13550 bound_to 12891

> <Gold.Score>
     Fitness  S(hb_ext) S(vdw_ext)  S(hb_int)    S(int)      intcor
     34.53       4.45      22.31       0.00      -0.59      -0.76

> <Gold.Goldscore.Fitness>
34.5342

> <Gold.Goldscore.Internal.Vdw>
-0.7903

> <Gold.Goldscore.Internal.Torsion>
-0.5667

> <Gold.Goldscore.External.Vdw>
22.3107

> <Gold.Goldscore.Internal.HBond>
0.0000

> <Gold.Goldscore.External.HBond>
4.4490

> <Gold.Goldscore.Internal.Correction>
-0.7650

> <Gold.Goldscore.Hbonds>
donor molecule, donor type, donor heavy atom, donor atom, acceptor molecule, acceptor atom, score
      P1  H  9513  9527       L1    17  0.07
      L1  H    10    23       P1  9345  0.67

> <Gold.Goldscore.Internal.Vdw.Weighted>
-0.7903

> <Gold.Goldscore.Internal.Torsion.Weighted>
-0.5667

> <Gold.Goldscore.External.Vdw.Weighted>
30.6772

> <Gold.Goldscore.Internal.HBond.Weighted>
0.0000

> <Gold.Goldscore.External.HBond.Weighted>
4.4490

> <Gold.Goldscore.Internal.Correction.Weighted>
-0.7650

> <Gold.Rescore>
     Score     S(PLP)   S(hbond)     S(cho)   S(metal)  DE(clash)   DE(tors)     intcor
     20.52     -20.00       1.00       0.00       0.00       0.00       1.24       ----

> <Gold.PLP.Fitness>
20.5211

> <Gold.PLP.PLP>
-19.9989

> <Gold.PLP.part.hbond>
-4.0242

> <Gold.PLP.part.metal>
0.0000

> <Gold.PLP.part.buried>
8.4351

> <Gold.PLP.part.nonpolar>
-26.7355

> <Gold.PLP.part.repulsive>
0.9960

> <Gold.PLP.ligand.clash>
0.0000

> <Gold.PLP.ligand.torsion>
1.2380

> <Gold.PLP.Chemscore.Hbond>
0.9994

> <Gold.PLP.Chemscore.CHOScore>
0.0000

> <Gold.PLP.Chemscore.Metal>
0.0000

> <Gold.Chemscore.Hbonds>
donor molecule, donor type, donor heavy atom, donor atom, acceptor molecule, acceptor atom, score
      L1  H    10    23       P1  9345  0.80
      P1  H  5687  5700       L1    17  0.21
      P1  H  9513  9527       L1    17  0.58

> <Gold.PLP.Chemscore.Internal.Correction>
   9.000000E+99

