#       Name:                crystal
#       Creating user name   hitesit
#       Creation time:       Mon Nov  6 23:29:43 2023


#       File generated by GOLD software.
#

@<TRIPOS>MOLECULE
crystal
    52    55     1
SMALL
NO_CHARGES


@<TRIPOS>ATOM
      1 O1           5.6118   2.0406   0.4324 O.3            1 RES1               0.0000
      2 C2           4.3541   1.6070   0.7714 C.ar           1 RES1               0.0000
      3 C3           6.4684   2.4684   1.4820 C.3            1 RES1               0.0000
      4 C4           3.5394   1.1835  -0.2895 C.ar           1 RES1               0.0000
      5 C5           3.8530   1.5736   2.0774 C.ar           1 RES1               0.0000
      6 O6           4.0892   1.2537  -1.5436 O.3            1 RES1               0.0000
      7 C7           2.2507   0.7236  -0.0124 C.ar           1 RES1               0.0000
      8 C8           2.5704   1.1240   2.3643 C.ar           1 RES1               0.0000
      9 C9           3.2620   0.9242  -2.6503 C.3            1 RES1               0.0000
     10 C10          1.7567   0.6789   1.3175 C.ar           1 RES1               0.0000
     11 N11          2.1667   1.1419   3.6369 N.ar           1 RES1               0.0000
     12 C12          0.4791   0.2244   1.6935 C.ar           1 RES1               0.0000
     13 C13          0.9216   0.7169   3.8930 C.ar           1 RES1               0.0000
     14 N14          0.0582   0.2745   2.9682 N.ar           1 RES1               0.0000
     15 N15         -0.4086  -0.2464   0.7356 N.pl3          1 RES1               0.0000
     16 C16          0.4443   0.7826   5.3098 C.3            1 RES1               0.0000
     17 C17         -1.8019  -0.5077   1.0610 C.3            1 RES1               0.0000
     18 C18         -2.6017  -0.3358  -0.2269 C.ar           1 RES1               0.0000
     19 C19         -1.9557  -1.8915   1.7006 C.3            1 RES1               0.0000
     20 C20         -2.7960  -1.3812  -1.1506 C.ar           1 RES1               0.0000
     21 C21         -3.1192   0.9305  -0.5366 C.ar           1 RES1               0.0000
     22 C22         -3.5143  -1.1923  -2.3451 C.ar           1 RES1               0.0000
     23 C23         -3.8319   1.1380  -1.7145 C.ar           1 RES1               0.0000
     24 C24         -3.7154  -2.2883  -3.2959 C.2            1 RES1               0.0000
     25 C25         -4.0298   0.0844  -2.6082 C.ar           1 RES1               0.0000
     26 C26         -3.3552  -3.5720  -3.2271 C.2            1 RES1               0.0000
     27 C27         -4.4115  -2.1736  -4.6067 C.3            1 RES1               0.0000
     28 N28         -3.7247  -4.2981  -4.3261 N.2            1 RES1               0.0000
     29 N29         -4.3289  -3.5556  -5.1480 N.2            1 RES1               0.0000
     30 H1           7.4245   2.7818   1.0653 H              1 RES1               0.0000
     31 H2           6.6277   1.6464   2.1782 H              1 RES1               0.0000
     32 H3           6.0095   3.3051   2.0067 H              1 RES1               0.0000
     33 H4           4.4887   1.9108   2.8948 H              1 RES1               0.0000
     34 H5           1.6132   0.3932  -0.8311 H              1 RES1               0.0000
     35 H6           2.4062   1.5972  -2.6770 H              1 RES1               0.0000
     36 H7           3.8322   1.0252  -3.5726 H              1 RES1               0.0000
     37 H8           2.9134  -0.1026  -2.5497 H              1 RES1               0.0000
     38 H9          -0.0789  -0.4115  -0.2101 H              1 RES1               0.0000
     39 H10         -0.5765   0.4076   5.3666 H              1 RES1               0.0000
     40 H11          0.4714   1.8153   5.6545 H              1 RES1               0.0000
     41 H12          1.0906   0.1727   5.9393 H              1 RES1               0.0000
     42 H13         -2.1354   0.2422   1.7768 H              1 RES1               0.0000
     43 H14         -1.3593  -1.9390   2.6104 H              1 RES1               0.0000
     44 H15         -1.6141  -2.6542   1.0023 H              1 RES1               0.0000
     45 H16         -3.0030  -2.0646   1.9436 H              1 RES1               0.0000
     46 H17         -2.3783  -2.3632  -0.9339 H              1 RES1               0.0000
     47 H18         -2.9619   1.7598   0.1513 H              1 RES1               0.0000
     48 H19         -4.2357   2.1242  -1.9387 H              1 RES1               0.0000
     49 H20         -4.5933   0.2568  -3.5241 H              1 RES1               0.0000
     50 H21         -2.8203  -3.9987  -2.3800 H              1 RES1               0.0000
     51 H22         -3.9031  -1.4660  -5.2597 H              1 RES1               0.0000
     52 H23         -5.4477  -1.8659  -4.4745 H              1 RES1               0.0000
@<TRIPOS>BOND
    1    1    2 1     
    2    1    3 1     
    3    2    4 ar    
    4    2    5 ar    
    5    4    6 1     
    6    4    7 ar    
    7    5    8 ar    
    8    6    9 1     
    9    7   10 ar    
   10    8   11 ar    
   11   10   12 ar    
   12   11   13 ar    
   13   12   14 ar    
   14   12   15 1     
   15   13   16 1     
   16   15   17 1     
   17   17   18 1     
   18   17   19 1     
   19   18   20 ar    
   20   18   21 ar    
   21   20   22 ar    
   22   21   23 ar    
   23   22   24 1     
   24   22   25 ar    
   25   24   26 2     
   26   24   27 1     
   27   26   28 1     
   28   27   29 1     
   29    8   10 ar    
   30   13   14 ar    
   31   23   25 ar    
   32   28   29 2     
   33    3   30 1     
   34    3   31 1     
   35    3   32 1     
   36    5   33 1     
   37    7   34 1     
   38    9   35 1     
   39    9   36 1     
   40    9   37 1     
   41   15   38 1     
   42   16   39 1     
   43   16   40 1     
   44   16   41 1     
   45   17   42 1     
   46   19   43 1     
   47   19   44 1     
   48   19   45 1     
   49   20   46 1     
   50   21   47 1     
   51   23   48 1     
   52   25   49 1     
   53   26   50 1     
   54   27   51 1     
   55   27   52 1     
@<TRIPOS>SUBSTRUCTURE
      1 RES1           1
@<TRIPOS>SET
DONOR_HYDROGENS      STATIC     ATOMS    <user>   **** ""
1 38
ATOM$RED        STATIC     ATOMS    COLORGROUP SYSTEM
1 38
