#       Name:                CT1002167954
#       Creating user name   hitesit
#       Creation time:       Sun Apr 16 23:01:19 2023


#       File generated by GOLD software.
#

@<TRIPOS>MOLECULE
CT1002167954|ligand_prepared|mol2|1|dock2
    29    30     1
SMALL
NO_CHARGES


@<TRIPOS>ATOM
      1 C1         224.7601  51.7239  13.0541 C.3            1 RES1               0.0000
      2 C2         226.1204  51.0076  12.9301 C.ar           1 RES1               0.0000
      3 C3         224.0457  51.5204  11.7213 C.2            1 RES1               0.0000
      4 C4         224.0500  51.0879  14.2441 C.2            1 RES1               0.0000
      5 C5         224.8758  53.2424  13.3226 C.3            1 RES1               0.0000
      6 C6         226.1814  49.6295  12.7461 C.ar           1 RES1               0.0000
      7 C7         227.3205  51.7105  12.9950 C.ar           1 RES1               0.0000
      8 N8         223.0082  50.6358  11.6891 N.am           1 RES1               0.0000
      9 O9         224.4124  52.0976  10.7051 O.2            1 RES1               0.0000
     10 N10        222.9059  50.3736  14.0023 N.am           1 RES1               0.0000
     11 O11        224.4801  51.1849  15.3868 O.2            1 RES1               0.0000
     12 C12        223.5348  53.9393  13.4903 C.3            1 RES1               0.0000
     13 C13        227.3980  48.9780  12.6282 C.ar           1 RES1               0.0000
     14 C14        228.5361  51.0570  12.8771 C.ar           1 RES1               0.0000
     15 C15        222.3696  50.0930  12.7751 C.2            1 RES1               0.0000
     16 C16        228.5760  49.6913  12.6931 C.ar           1 RES1               0.0000
     17 O17        221.3678  49.3975  12.6349 O.2            1 RES1               0.0000
     18 H18        225.4697  53.3960  14.2321 H              1 RES1               0.0000
     19 H19        225.4140  53.7086  12.4881 H              1 RES1               0.0000
     20 H20        225.2649  49.0512  12.6949 H              1 RES1               0.0000
     21 H21        227.3134  52.7854  13.1403 H              1 RES1               0.0000
     22 H22        222.6764  50.3516  10.7729 H              1 RES1               0.0000
     23 H23        222.4076  50.0183  14.8121 H              1 RES1               0.0000
     24 H24        223.6731  55.0023  13.6764 H              1 RES1               0.0000
     25 H25        222.9277  53.8284  12.5943 H              1 RES1               0.0000
     26 H26        222.9830  53.5176  14.3279 H              1 RES1               0.0000
     27 H27        227.4240  47.9029  12.4849 H              1 RES1               0.0000
     28 H28        229.4607  51.6223  12.9295 H              1 RES1               0.0000
     29 H29        229.5288  49.1808  12.6004 H              1 RES1               0.0000
@<TRIPOS>BOND
    1    1    2 1     
    2    1    3 1     
    3    1    4 1     
    4    1    5 1     
    5    2    6 ar    
    6    2    7 ar    
    7    3    8 1     
    8    3    9 2     
    9    4   10 1     
   10    4   11 2     
   11    5   12 1     
   12    5   18 1     
   13    5   19 1     
   14    6   13 ar    
   15    6   20 1     
   16    7   14 ar    
   17    7   21 1     
   18    8   15 1     
   19    8   22 1     
   20   10   15 1     
   21   10   23 1     
   22   12   24 1     
   23   12   25 1     
   24   12   26 1     
   25   13   16 ar    
   26   13   27 1     
   27   14   16 ar    
   28   14   28 1     
   29   15   17 2     
   30   16   29 1     
@<TRIPOS>SUBSTRUCTURE
      1 RES1           1
@<TRIPOS>SET
DONOR_HYDROGENS      STATIC     ATOMS    <user>   **** ""
2 22 23
ATOM$RED        STATIC     ATOMS    COLORGROUP SYSTEM
2 22 23
@<TRIPOS>COMMENT
> <Gold.Version>
2022.3.0

> <Gold.Id.Protein>
unknown|4d1n_clean|pdb

> <Gold.Protein.RotatedTorsions>
[ 6581 6565 6566 6567 ] final -120.07 input  113.40 | X-H torsion
[ 6673 6649 6650 6651 ] final   78.55 input  128.31 | X-H torsion
[ 8033 8017 8018 8019 ] final   70.26 input   38.97 | X-H torsion
[ 8113 8095 8096 8097 ] final  170.94 input   94.22 | X-H torsion
[ 8173 8159 8160 8161 ] final   84.68 input   69.09 | X-H torsion
[ 8253 8231 8232 8233 ] final   93.84 input   84.65 | X-H torsion
[ 9553 9532 9531 9529 ] final   15.73 input   60.02 | X-H torsion
[ 8321 8305 8306 8307 ] final -123.52 input   94.69 | X-H torsion
[ 10193 10177 10178 10179 ] final  134.40 input   41.54 | X-H torsion
[ 7949 7931 7932 7933 ] final  -52.76 input   80.35 | X-H torsion
[ 7894 7881 7882 7883 ] final  -40.99 input   97.23 | X-H torsion
[ 7898 7886 7885 7882 ] final   45.31 input   59.98 | X-H torsion
[ 6813 6795 6796 6797 ] final  -92.39 input  114.70 | X-H torsion
[ 27193 6328 6327 6326 ] final  -77.23 input    0.00 | X-H torsion
[ 27196 6568 6567 6566 ] final  142.35 input   -0.00 | X-H torsion
[ 27199 7884 7883 7882 ] final   81.01 input   -0.00 | X-H torsion
[ 27202 8020 8019 8018 ] final  -77.70 input   -0.00 | X-H torsion
[ 27205 8098 8097 8096 ] final   55.61 input   -0.00 | X-H torsion
[ 27208 8162 8161 8160 ] final -154.00 input    0.00 | X-H torsion
[ 27213 10092 10091 10090 ] final  175.08 input    0.00 | X-H torsion
[ 27217 10180 10179 10178 ] final  -48.79 input    0.00 | X-H torsion
[ 27220 7934 7933 7932 ] final -109.51 input    0.00 | X-H torsion
[ 27222 7726 7725 7724 ] final -134.40 input    0.00 | X-H torsion
[ 27224 7804 7803 7802 ] final   18.72 input    0.00 | X-H torsion

> <Gold.Protein.ActiveResidues>
 ASP403  THR404  LEU406  ILE407  TYR408  ALA410  LYS411  TRP414  GLN425  TRP426 
 SER427  LYS428  LEU429  GLN430  VAL431  PHE432  ASP433  TYR453  SER462  ALA463 
 ILE464 

> <Gold.Protein.RotatedAtoms>
  216.8049   47.3309   17.8537 H   0  0  0  0  0  0  0  0  0  0  0  0  # atno 6581 bound_to 6565
  218.3385   48.5106   20.2802 H   0  0  0  0  0  0  0  0  0  0  0  0  # atno 6673 bound_to 6649
  221.6641   43.3731   19.2072 H   0  0  0  0  0  0  0  0  0  0  0  0  # atno 6813 bound_to 6795
  229.0812   45.0732   18.7102 H   0  0  0  0  0  0  0  0  0  0  0  0  # atno 7894 bound_to 7881
  230.4030   48.5316   18.7452 H   0  0  0  0  0  0  0  0  0  0  0  0  # atno 7898 bound_to 7886
  228.3446   46.7666   17.2522 H   0  0  0  0  0  0  0  0  0  0  0  0  # atno 7949 bound_to 7931
  226.8636   47.0252   15.3602 H   0  0  0  0  0  0  0  0  0  0  0  0  # atno 8033 bound_to 8017
  225.8954   46.0821   11.9307 H   0  0  0  0  0  0  0  0  0  0  0  0  # atno 8113 bound_to 8095
  221.7611   47.6378   12.1485 H   0  0  0  0  0  0  0  0  0  0  0  0  # atno 8173 bound_to 8159
  219.2691   44.4906   10.5169 H   0  0  0  0  0  0  0  0  0  0  0  0  # atno 8253 bound_to 8231
  216.3618   45.7714   10.7005 H   0  0  0  0  0  0  0  0  0  0  0  0  # atno 8321 bound_to 8305
  226.5432   48.6735    7.4466 H   0  0  0  0  0  0  0  0  0  0  0  0  # atno 9553 bound_to 9532
  222.7863   42.1563   11.9357 H   0  0  0  0  0  0  0  0  0  0  0  0  # atno 10193 bound_to 10177
  215.5104   49.4794   18.0223 LP  0  0  0  0  0  0  0  0  0  0  0  0  # atno 27193 bound_to 6328
  216.4867   50.5022   17.0219 LP  0  0  0  0  0  0  0  0  0  0  0  0  # atno 27194 bound_to 6328
  217.0445   48.6030   19.0336 LP  0  0  0  0  0  0  0  0  0  0  0  0  # atno 27195 bound_to 6565
  221.3198   46.9024   19.7151 LP  0  0  0  0  0  0  0  0  0  0  0  0  # atno 27196 bound_to 6568
  220.2828   45.9673   18.6904 LP  0  0  0  0  0  0  0  0  0  0  0  0  # atno 27197 bound_to 6568
  219.9123   48.5003   19.5184 LP  0  0  0  0  0  0  0  0  0  0  0  0  # atno 27198 bound_to 6649
  228.0371   49.4004   17.3878 LP  0  0  0  0  0  0  0  0  0  0  0  0  # atno 27199 bound_to 7884
  226.8787   48.2603   16.7893 LP  0  0  0  0  0  0  0  0  0  0  0  0  # atno 27200 bound_to 7884
  228.0603   46.3974   14.2494 LP  0  0  0  0  0  0  0  0  0  0  0  0  # atno 27201 bound_to 8017
  223.7381   46.9585   14.4678 LP  0  0  0  0  0  0  0  0  0  0  0  0  # atno 27202 bound_to 8020
  224.7584   48.0982   13.6554 LP  0  0  0  0  0  0  0  0  0  0  0  0  # atno 27203 bound_to 8020
  224.6236   45.2004   12.7354 LP  0  0  0  0  0  0  0  0  0  0  0  0  # atno 27204 bound_to 8095
  223.0305   44.0591   11.8597 LP  0  0  0  0  0  0  0  0  0  0  0  0  # atno 27205 bound_to 8098
  221.7349   44.3316   10.7430 LP  0  0  0  0  0  0  0  0  0  0  0  0  # atno 27206 bound_to 8098
  222.2448   46.1493   11.3820 LP  0  0  0  0  0  0  0  0  0  0  0  0  # atno 27207 bound_to 8159
  217.9400   47.7317   10.7093 LP  0  0  0  0  0  0  0  0  0  0  0  0  # atno 27208 bound_to 8162
  219.4569   48.3107   11.3125 LP  0  0  0  0  0  0  0  0  0  0  0  0  # atno 27209 bound_to 8162
  219.0303   46.1038   11.1364 LP  0  0  0  0  0  0  0  0  0  0  0  0  # atno 27210 bound_to 8231
  227.6285   47.4674    7.5696 LP  0  0  0  0  0  0  0  0  0  0  0  0  # atno 27211 bound_to 9532
  226.2600   47.4323    8.4601 LP  0  0  0  0  0  0  0  0  0  0  0  0  # atno 27212 bound_to 9532
  225.5250   44.1904   10.2497 LP  0  0  0  0  0  0  0  0  0  0  0  0  # atno 27213 bound_to 10092
  227.2140   44.4580   10.5251 LP  0  0  0  0  0  0  0  0  0  0  0  0  # atno 27214 bound_to 10092
  215.6490   46.8818    9.5506 LP  0  0  0  0  0  0  0  0  0  0  0  0  # atno 27215 bound_to 8305
  222.2143   42.1095   10.2836 LP  0  0  0  0  0  0  0  0  0  0  0  0  # atno 27216 bound_to 10177
  219.7968   43.4516   11.5765 LP  0  0  0  0  0  0  0  0  0  0  0  0  # atno 27217 bound_to 10180
  219.3278   43.1587    9.9351 LP  0  0  0  0  0  0  0  0  0  0  0  0  # atno 27218 bound_to 10180
  230.0931   46.7469   17.3246 LP  0  0  0  0  0  0  0  0  0  0  0  0  # atno 27219 bound_to 7931
  228.9696   44.9053   13.2036 LP  0  0  0  0  0  0  0  0  0  0  0  0  # atno 27220 bound_to 7934
  229.2264   44.3203   14.8135 LP  0  0  0  0  0  0  0  0  0  0  0  0  # atno 27221 bound_to 7934
  230.0122   45.0181   17.3445 LP  0  0  0  0  0  0  0  0  0  0  0  0  # atno 27222 bound_to 7726
  230.5543   43.8699   16.1665 LP  0  0  0  0  0  0  0  0  0  0  0  0  # atno 27223 bound_to 7726
  226.9165   43.7178   18.8980 LP  0  0  0  0  0  0  0  0  0  0  0  0  # atno 27224 bound_to 7804
  226.9969   45.3316   18.2742 LP  0  0  0  0  0  0  0  0  0  0  0  0  # atno 27225 bound_to 7804
  229.7346   45.7528   20.1804 LP  0  0  0  0  0  0  0  0  0  0  0  0  # atno 27226 bound_to 7881
  230.8568   47.7591   20.1039 LP  0  0  0  0  0  0  0  0  0  0  0  0  # atno 27227 bound_to 7886
  230.5440   49.3615   20.1381 LP  0  0  0  0  0  0  0  0  0  0  0  0  # atno 27228 bound_to 7886

> <Gold.Score>
     Fitness  S(hb_ext) S(vdw_ext)  S(hb_int)    S(int)      intcor
     32.95      11.99      15.27       0.00      -0.03      -0.75

> <Gold.Goldscore.Fitness>
32.9546

> <Gold.Goldscore.Internal.Vdw>
-0.4096

> <Gold.Goldscore.Internal.Torsion>
-0.3724

> <Gold.Goldscore.External.Vdw>
15.2694

> <Gold.Goldscore.Internal.HBond>
0.0000

> <Gold.Goldscore.External.HBond>
11.9865

> <Gold.Goldscore.Internal.Correction>
-0.7548

> <Gold.Goldscore.Hbonds>
donor molecule, donor type, donor heavy atom, donor atom, acceptor molecule, acceptor atom, score
      P1  H  6803  6824       L1    11  0.77
      P1  H  8102  8119       L1     9  0.36
      P1  H  8159  8173       L1    17  0.31
      L1  H     8    22       P1  8103  1.00

> <Gold.Goldscore.Internal.Vdw.Weighted>
-0.4096

> <Gold.Goldscore.Internal.Torsion.Weighted>
-0.3724

> <Gold.Goldscore.External.Vdw.Weighted>
20.9954

> <Gold.Goldscore.Internal.HBond.Weighted>
0.0000

> <Gold.Goldscore.External.HBond.Weighted>
11.9865

> <Gold.Goldscore.Internal.Correction.Weighted>
-0.7548

> <Gold.Rescore>
     Score     S(PLP)   S(hbond)     S(cho)   S(metal)  DE(clash)   DE(tors)     intcor
     26.01     -16.93       3.10       0.00       0.00       0.00       0.10       ----

> <Gold.PLP.Fitness>
26.0134

> <Gold.PLP.PLP>
-16.9298

> <Gold.PLP.part.hbond>
-3.6551

> <Gold.PLP.part.metal>
0.0000

> <Gold.PLP.part.buried>
-3.0013

> <Gold.PLP.part.nonpolar>
-13.6698

> <Gold.PLP.part.repulsive>
0.7897

> <Gold.PLP.ligand.clash>
0.0000

> <Gold.PLP.ligand.torsion>
0.1045

> <Gold.PLP.Chemscore.Hbond>
3.0975

> <Gold.PLP.Chemscore.CHOScore>
0.0000

> <Gold.PLP.Chemscore.Metal>
0.0000

> <Gold.Chemscore.Hbonds>
donor molecule, donor type, donor heavy atom, donor atom, acceptor molecule, acceptor atom, score
      L1  H     8    22       P1  8103  0.75
      P1  H  6803  6824       L1    11  0.63
      P1  H  8102  8119       L1     9  0.25
      P1  H  8159  8173       L1    17  1.00

> <Gold.PLP.Chemscore.Internal.Correction>
   9.000000E+99

#       Name:                CT1002167954
#       Creating user name   hitesit
#       Creation time:       Sun Apr 16 23:01:19 2023


#       File generated by GOLD software.
#

@<TRIPOS>MOLECULE
CT1002167954|ligand_prepared|mol2|1|dock1
    29    30     1
SMALL
NO_CHARGES


@<TRIPOS>ATOM
      1 C1         224.7421  51.6798  13.0882 C.3            1 RES1               0.0000
      2 C2         226.0989  50.9565  12.9667 C.ar           1 RES1               0.0000
      3 C3         224.0420  51.5061  11.7436 C.2            1 RES1               0.0000
      4 C4         224.0138  51.0267  14.2577 C.2            1 RES1               0.0000
      5 C5         224.8648  53.1922  13.3864 C.3            1 RES1               0.0000
      6 C6         226.1558  49.5701  12.8603 C.ar           1 RES1               0.0000
      7 C7         227.2998  51.6611  12.9567 C.ar           1 RES1               0.0000
      8 N8         222.9990  50.6295  11.6829 N.am           1 RES1               0.0000
      9 O9         224.4245  52.0995  10.7427 O.2            1 RES1               0.0000
     10 N10        222.8678  50.3250  13.9894 N.am           1 RES1               0.0000
     11 O11        224.4311  51.0994  15.4070 O.2            1 RES1               0.0000
     12 C12        223.5341  53.8712  13.6698 C.3            1 RES1               0.0000
     13 C13        227.3691  48.9120  12.7453 C.ar           1 RES1               0.0000
     14 C14        228.5120  51.0010  12.8418 C.ar           1 RES1               0.0000
     15 C15        222.3442  50.0710  12.7510 C.2            1 RES1               0.0000
     16 C16        228.5478  49.6269  12.7355 C.ar           1 RES1               0.0000
     17 O17        221.3394  49.3851  12.5862 O.2            1 RES1               0.0000
     18 H18        225.5227  53.3290  14.2534 H              1 RES1               0.0000
     19 H19        225.3363  53.6845  12.5268 H              1 RES1               0.0000
     20 H20        225.2387  48.9905  12.8687 H              1 RES1               0.0000
     21 H21        227.2958  52.7426  13.0402 H              1 RES1               0.0000
     22 H22        222.6762  50.3647  10.7577 H              1 RES1               0.0000
     23 H23        222.3577  49.9582  14.7866 H              1 RES1               0.0000
     24 H24        223.6770  54.9306  13.8724 H              1 RES1               0.0000
     25 H25        222.8636  53.7766  12.8181 H              1 RES1               0.0000
     26 H26        223.0489  53.4232  14.5345 H              1 RES1               0.0000
     27 H27        227.3919  47.8303  12.6632 H              1 RES1               0.0000
     28 H28        229.4373  51.5676  12.8352 H              1 RES1               0.0000
     29 H29        229.4981  49.1112  12.6449 H              1 RES1               0.0000
@<TRIPOS>BOND
    1    1    2 1     
    2    1    3 1     
    3    1    4 1     
    4    1    5 1     
    5    2    6 ar    
    6    2    7 ar    
    7    3    8 1     
    8    3    9 2     
    9    4   10 1     
   10    4   11 2     
   11    5   12 1     
   12    5   18 1     
   13    5   19 1     
   14    6   13 ar    
   15    6   20 1     
   16    7   14 ar    
   17    7   21 1     
   18    8   15 1     
   19    8   22 1     
   20   10   15 1     
   21   10   23 1     
   22   12   24 1     
   23   12   25 1     
   24   12   26 1     
   25   13   16 ar    
   26   13   27 1     
   27   14   16 ar    
   28   14   28 1     
   29   15   17 2     
   30   16   29 1     
@<TRIPOS>SUBSTRUCTURE
      1 RES1           1
@<TRIPOS>SET
DONOR_HYDROGENS      STATIC     ATOMS    <user>   **** ""
2 22 23
ATOM$RED        STATIC     ATOMS    COLORGROUP SYSTEM
2 22 23
@<TRIPOS>COMMENT
> <Gold.Version>
2022.3.0

> <Gold.Id.Protein>
unknown|4d1n_clean|pdb

> <Gold.Protein.RotatedTorsions>
[ 6581 6565 6566 6567 ] final  147.45 input  113.40 | X-H torsion
[ 6673 6649 6650 6651 ] final  157.68 input  128.31 | X-H torsion
[ 8033 8017 8018 8019 ] final   87.01 input   38.97 | X-H torsion
[ 8113 8095 8096 8097 ] final -116.36 input   94.22 | X-H torsion
[ 8173 8159 8160 8161 ] final  143.05 input   69.09 | X-H torsion
[ 8253 8231 8232 8233 ] final   85.55 input   84.65 | X-H torsion
[ 9553 9532 9531 9529 ] final  153.72 input   60.02 | X-H torsion
[ 8321 8305 8306 8307 ] final  -54.37 input   94.69 | X-H torsion
[ 10193 10177 10178 10179 ] final  151.51 input   41.54 | X-H torsion
[ 7949 7931 7932 7933 ] final -109.19 input   80.35 | X-H torsion
[ 7894 7881 7882 7883 ] final   65.26 input   97.23 | X-H torsion
[ 7898 7886 7885 7882 ] final   53.89 input   59.98 | X-H torsion
[ 6813 6795 6796 6797 ] final   45.31 input  114.70 | X-H torsion
[ 27193 6328 6327 6326 ] final -161.41 input    0.00 | X-H torsion
[ 27196 6568 6567 6566 ] final  110.04 input   -0.00 | X-H torsion
[ 27199 7884 7883 7882 ] final -113.34 input   -0.00 | X-H torsion
[ 27202 8020 8019 8018 ] final   26.77 input   -0.00 | X-H torsion
[ 27205 8098 8097 8096 ] final -164.13 input   -0.00 | X-H torsion
[ 27208 8162 8161 8160 ] final  -19.82 input    0.00 | X-H torsion
[ 27213 10092 10091 10090 ] final -149.05 input    0.00 | X-H torsion
[ 27217 10180 10179 10178 ] final   67.84 input    0.00 | X-H torsion
[ 27220 7934 7933 7932 ] final  -42.95 input    0.00 | X-H torsion
[ 27222 7726 7725 7724 ] final   59.55 input    0.00 | X-H torsion
[ 27224 7804 7803 7802 ] final -156.28 input    0.00 | X-H torsion

> <Gold.Protein.ActiveResidues>
 ASP403  THR404  LEU406  ILE407  TYR408  ALA410  LYS411  TRP414  GLN425  TRP426 
 SER427  LYS428  LEU429  GLN430  VAL431  PHE432  ASP433  TYR453  SER462  ALA463 
 ILE464 

> <Gold.Protein.RotatedAtoms>
  216.7771   48.6190   17.8518 H   0  0  0  0  0  0  0  0  0  0  0  0  # atno 6581 bound_to 6565
  219.0738   49.3542   20.1387 H   0  0  0  0  0  0  0  0  0  0  0  0  # atno 6673 bound_to 6649
  221.3191   44.3749   20.4589 H   0  0  0  0  0  0  0  0  0  0  0  0  # atno 6813 bound_to 6795
  230.1678   45.8106   19.2277 H   0  0  0  0  0  0  0  0  0  0  0  0  # atno 7894 bound_to 7881
  230.3785   48.6690   18.7584 H   0  0  0  0  0  0  0  0  0  0  0  0  # atno 7898 bound_to 7886
  228.7441   47.4895   17.4078 H   0  0  0  0  0  0  0  0  0  0  0  0  # atno 7949 bound_to 7931
  226.9621   46.8402   15.5115 H   0  0  0  0  0  0  0  0  0  0  0  0  # atno 8033 bound_to 8017
  225.3980   46.3709   12.7981 H   0  0  0  0  0  0  0  0  0  0  0  0  # atno 8113 bound_to 8095
  222.1796   47.0518   12.6052 H   0  0  0  0  0  0  0  0  0  0  0  0  # atno 8173 bound_to 8159
  219.1825   44.4548   10.6024 H   0  0  0  0  0  0  0  0  0  0  0  0  # atno 8253 bound_to 8231
  215.9237   45.4956    9.8342 H   0  0  0  0  0  0  0  0  0  0  0  0  # atno 8321 bound_to 8305
  226.4818   47.2401    8.4448 H   0  0  0  0  0  0  0  0  0  0  0  0  # atno 9553 bound_to 9532
  222.9133   41.9394   11.8563 H   0  0  0  0  0  0  0  0  0  0  0  0  # atno 10193 bound_to 10177
  216.3734   50.2156   18.2697 LP  0  0  0  0  0  0  0  0  0  0  0  0  # atno 27193 bound_to 6328
  215.6237   49.7659   16.7745 LP  0  0  0  0  0  0  0  0  0  0  0  0  # atno 27194 bound_to 6328
  217.0712   47.3619   19.0354 LP  0  0  0  0  0  0  0  0  0  0  0  0  # atno 27195 bound_to 6565
  221.4350   47.0221   19.2627 LP  0  0  0  0  0  0  0  0  0  0  0  0  # atno 27196 bound_to 6568
  220.1677   45.8476   19.1428 LP  0  0  0  0  0  0  0  0  0  0  0  0  # atno 27197 bound_to 6568
  219.1957   47.6780   19.6564 LP  0  0  0  0  0  0  0  0  0  0  0  0  # atno 27198 bound_to 6649
  226.9965   48.2765   16.6086 LP  0  0  0  0  0  0  0  0  0  0  0  0  # atno 27199 bound_to 7884
  227.9193   49.3842   17.5685 LP  0  0  0  0  0  0  0  0  0  0  0  0  # atno 27200 bound_to 7884
  227.9646   46.5772   14.1023 LP  0  0  0  0  0  0  0  0  0  0  0  0  # atno 27201 bound_to 8017
  224.9097   47.6534   14.6064 LP  0  0  0  0  0  0  0  0  0  0  0  0  # atno 27202 bound_to 8020
  223.5868   47.4033   13.5167 LP  0  0  0  0  0  0  0  0  0  0  0  0  # atno 27203 bound_to 8020
  225.1143   44.9155   11.8796 LP  0  0  0  0  0  0  0  0  0  0  0  0  # atno 27204 bound_to 8095
  221.5219   44.2896   11.2903 LP  0  0  0  0  0  0  0  0  0  0  0  0  # atno 27205 bound_to 8098
  223.2435   44.1010   11.3124 LP  0  0  0  0  0  0  0  0  0  0  0  0  # atno 27206 bound_to 8098
  221.8291   46.7313   10.9284 LP  0  0  0  0  0  0  0  0  0  0  0  0  # atno 27207 bound_to 8159
  218.9977   48.2221   11.7984 LP  0  0  0  0  0  0  0  0  0  0  0  0  # atno 27208 bound_to 8162
  218.3992   47.8203   10.2234 LP  0  0  0  0  0  0  0  0  0  0  0  0  # atno 27209 bound_to 8162
  219.1157   46.1390   11.0520 LP  0  0  0  0  0  0  0  0  0  0  0  0  # atno 27210 bound_to 8231
  226.3115   48.6342    7.6231 LP  0  0  0  0  0  0  0  0  0  0  0  0  # atno 27211 bound_to 9532
  227.6388   47.7091    7.4013 LP  0  0  0  0  0  0  0  0  0  0  0  0  # atno 27212 bound_to 9532
  225.5992   44.2445   10.7751 LP  0  0  0  0  0  0  0  0  0  0  0  0  # atno 27213 bound_to 10092
  227.1398   44.4039    9.9997 LP  0  0  0  0  0  0  0  0  0  0  0  0  # atno 27214 bound_to 10092
  216.0731   47.1487   10.3892 LP  0  0  0  0  0  0  0  0  0  0  0  0  # atno 27215 bound_to 8305
  222.0907   42.3207   10.3608 LP  0  0  0  0  0  0  0  0  0  0  0  0  # atno 27216 bound_to 10177
  220.1987   43.2784   10.1690 LP  0  0  0  0  0  0  0  0  0  0  0  0  # atno 27217 bound_to 10180
  218.9259   43.3319   11.3425 LP  0  0  0  0  0  0  0  0  0  0  0  0  # atno 27218 bound_to 10180
  229.7060   46.0464   17.1738 LP  0  0  0  0  0  0  0  0  0  0  0  0  # atno 27219 bound_to 7931
  229.7711   45.0562   13.6918 LP  0  0  0  0  0  0  0  0  0  0  0  0  # atno 27220 bound_to 7934
  228.4250   44.1694   14.3254 LP  0  0  0  0  0  0  0  0  0  0  0  0  # atno 27221 bound_to 7934
  230.3876   43.7607   16.2338 LP  0  0  0  0  0  0  0  0  0  0  0  0  # atno 27222 bound_to 7726
  230.1788   45.1274   17.2772 LP  0  0  0  0  0  0  0  0  0  0  0  0  # atno 27223 bound_to 7726
  227.0221   45.3018   18.2096 LP  0  0  0  0  0  0  0  0  0  0  0  0  # atno 27224 bound_to 7804
  226.8913   43.7475   18.9626 LP  0  0  0  0  0  0  0  0  0  0  0  0  # atno 27225 bound_to 7804
  228.6701   45.0304   19.6735 LP  0  0  0  0  0  0  0  0  0  0  0  0  # atno 27226 bound_to 7881
  230.8419   47.6965   19.9783 LP  0  0  0  0  0  0  0  0  0  0  0  0  # atno 27227 bound_to 7886
  230.5837   49.2858   20.2504 LP  0  0  0  0  0  0  0  0  0  0  0  0  # atno 27228 bound_to 7886

> <Gold.Score>
     Fitness  S(hb_ext) S(vdw_ext)  S(hb_int)    S(int)      intcor
     32.35      11.20      15.46       0.00      -0.10      -0.75

> <Gold.Goldscore.Fitness>
32.3548

> <Gold.Goldscore.Internal.Vdw>
-0.4122

> <Gold.Goldscore.Internal.Torsion>
-0.4406

> <Gold.Goldscore.External.Vdw>
15.4561

> <Gold.Goldscore.Internal.HBond>
0.0000

> <Gold.Goldscore.External.HBond>
11.2007

> <Gold.Goldscore.Internal.Correction>
-0.7548

> <Gold.Goldscore.Hbonds>
donor molecule, donor type, donor heavy atom, donor atom, acceptor molecule, acceptor atom, score
      P1  H  6803  6824       L1    11  0.77
      P1  H  8102  8119       L1     9  0.36
      L1  H     8    22       P1  8103  0.97

> <Gold.Goldscore.Internal.Vdw.Weighted>
-0.4122

> <Gold.Goldscore.Internal.Torsion.Weighted>
-0.4406

> <Gold.Goldscore.External.Vdw.Weighted>
21.2521

> <Gold.Goldscore.Internal.HBond.Weighted>
0.0000

> <Gold.Goldscore.External.HBond.Weighted>
11.2007

> <Gold.Goldscore.Internal.Correction.Weighted>
-0.7548

> <Gold.Rescore>
     Score     S(PLP)   S(hbond)     S(cho)   S(metal)  DE(clash)   DE(tors)     intcor
     25.36     -18.80       2.21       0.00       0.00       0.00       0.03       ----

> <Gold.PLP.Fitness>
25.3619

> <Gold.PLP.PLP>
-18.8035

> <Gold.PLP.part.hbond>
-2.8291

> <Gold.PLP.part.metal>
0.0000

> <Gold.PLP.part.buried>
-4.1135

> <Gold.PLP.part.nonpolar>
-13.4759

> <Gold.PLP.part.repulsive>
0.4375

> <Gold.PLP.ligand.clash>
0.0000

> <Gold.PLP.ligand.torsion>
0.0295

> <Gold.PLP.Chemscore.Hbond>
2.2058

> <Gold.PLP.Chemscore.CHOScore>
0.0000

> <Gold.PLP.Chemscore.Metal>
0.0000

> <Gold.Chemscore.Hbonds>
donor molecule, donor type, donor heavy atom, donor atom, acceptor molecule, acceptor atom, score
      L1  H     8    22       P1  8103  0.75
      P1  H  6803  6824       L1    11  0.49
      P1  H  8102  8119       L1     9  0.25

> <Gold.PLP.Chemscore.Internal.Correction>
   9.000000E+99

#       Name:                CT1002167954
#       Creating user name   hitesit
#       Creation time:       Sun Apr 16 23:01:22 2023


#       File generated by GOLD software.
#

@<TRIPOS>MOLECULE
CT1002167954|ligand_prepared|mol2|1|dock7
    29    30     1
SMALL
NO_CHARGES


@<TRIPOS>ATOM
      1 C1         227.6814  50.1472  12.9285 C.3            1 RES1               0.0000
      2 C2         228.1616  48.8433  12.2592 C.ar           1 RES1               0.0000
      3 C3         227.2121  49.7625  14.3285 C.2            1 RES1               0.0000
      4 C4         228.8722  51.0992  12.9113 C.2            1 RES1               0.0000
      5 C5         226.5097  50.8342  12.1892 C.3            1 RES1               0.0000
      6 C6         229.5201  48.5629  12.1472 C.ar           1 RES1               0.0000
      7 C7         227.2596  47.9116  11.7523 C.ar           1 RES1               0.0000
      8 N8         228.0086  50.1097  15.3796 N.am           1 RES1               0.0000
      9 O9         226.1784  49.1294  14.5045 O.2            1 RES1               0.0000
     10 N10        229.4211  51.4628  14.1131 N.am           1 RES1               0.0000
     11 O11        229.3505  51.5247  11.8671 O.2            1 RES1               0.0000
     12 C12        226.2011  52.2341  12.6965 C.3            1 RES1               0.0000
     13 C13        229.9610  47.3922  11.5528 C.ar           1 RES1               0.0000
     14 C14        227.7026  46.7415  11.1580 C.ar           1 RES1               0.0000
     15 C15        229.0626  50.9870  15.3449 C.2            1 RES1               0.0000
     16 C16        229.0527  46.4806  11.0582 C.ar           1 RES1               0.0000
     17 O17        229.6400  51.3202  16.3758 O.2            1 RES1               0.0000
     18 H18        226.7513  50.8911  11.1207 H              1 RES1               0.0000
     19 H19        225.6116  50.2136  12.2973 H              1 RES1               0.0000
     20 H20        230.2498  49.2696  12.5285 H              1 RES1               0.0000
     21 H21        226.1928  48.0963  11.8189 H              1 RES1               0.0000
     22 H22        227.8016  49.6771  16.2742 H              1 RES1               0.0000
     23 H23        230.1658  52.1520  14.0870 H              1 RES1               0.0000
     24 H24        225.3715  52.6704  12.1442 H              1 RES1               0.0000
     25 H25        225.9321  52.2118  13.7505 H              1 RES1               0.0000
     26 H26        227.0651  52.8853  12.5809 H              1 RES1               0.0000
     27 H27        231.0246  47.1922  11.4754 H              1 RES1               0.0000
     28 H28        226.9842  46.0272  10.7696 H              1 RES1               0.0000
     29 H29        229.3983  45.5634  10.5929 H              1 RES1               0.0000
@<TRIPOS>BOND
    1    1    2 1     
    2    1    3 1     
    3    1    4 1     
    4    1    5 1     
    5    2    6 ar    
    6    2    7 ar    
    7    3    8 1     
    8    3    9 2     
    9    4   10 1     
   10    4   11 2     
   11    5   12 1     
   12    5   18 1     
   13    5   19 1     
   14    6   13 ar    
   15    6   20 1     
   16    7   14 ar    
   17    7   21 1     
   18    8   15 1     
   19    8   22 1     
   20   10   15 1     
   21   10   23 1     
   22   12   24 1     
   23   12   25 1     
   24   12   26 1     
   25   13   16 ar    
   26   13   27 1     
   27   14   16 ar    
   28   14   28 1     
   29   15   17 2     
   30   16   29 1     
@<TRIPOS>SUBSTRUCTURE
      1 RES1           1
@<TRIPOS>SET
DONOR_HYDROGENS      STATIC     ATOMS    <user>   **** ""
2 22 23
ATOM$RED        STATIC     ATOMS    COLORGROUP SYSTEM
2 22 23
@<TRIPOS>COMMENT
> <Gold.Version>
2022.3.0

> <Gold.Id.Protein>
unknown|4d1n_clean|pdb

> <Gold.Protein.RotatedTorsions>
[ 6581 6565 6566 6567 ] final  177.27 input  113.40 | X-H torsion
[ 6673 6649 6650 6651 ] final   38.03 input  128.31 | X-H torsion
[ 8033 8017 8018 8019 ] final   -6.90 input   38.97 | X-H torsion
[ 8113 8095 8096 8097 ] final -105.92 input   94.22 | X-H torsion
[ 8173 8159 8160 8161 ] final  -43.84 input   69.09 | X-H torsion
[ 8253 8231 8232 8233 ] final   16.19 input   84.65 | X-H torsion
[ 9553 9532 9531 9529 ] final  -96.16 input   60.02 | X-H torsion
[ 8321 8305 8306 8307 ] final  -44.21 input   94.69 | X-H torsion
[ 10193 10177 10178 10179 ] final  -85.39 input   41.54 | X-H torsion
[ 7949 7931 7932 7933 ] final -156.41 input   80.35 | X-H torsion
[ 7894 7881 7882 7883 ] final  -99.99 input   97.23 | X-H torsion
[ 7898 7886 7885 7882 ] final  162.20 input   59.98 | X-H torsion
[ 6813 6795 6796 6797 ] final -120.45 input  114.70 | X-H torsion
[ 27193 6328 6327 6326 ] final -129.98 input    0.00 | X-H torsion
[ 27196 6568 6567 6566 ] final  -26.16 input   -0.00 | X-H torsion
[ 27199 7884 7883 7882 ] final  -99.19 input   -0.00 | X-H torsion
[ 27202 8020 8019 8018 ] final  107.64 input   -0.00 | X-H torsion
[ 27205 8098 8097 8096 ] final -130.72 input   -0.00 | X-H torsion
[ 27208 8162 8161 8160 ] final -172.30 input    0.00 | X-H torsion
[ 27213 10092 10091 10090 ] final  -76.10 input    0.00 | X-H torsion
[ 27217 10180 10179 10178 ] final -108.75 input    0.00 | X-H torsion
[ 27220 7934 7933 7932 ] final   69.00 input    0.00 | X-H torsion
[ 27222 7726 7725 7724 ] final  -34.16 input    0.00 | X-H torsion
[ 27224 7804 7803 7802 ] final   -3.09 input    0.00 | X-H torsion

> <Gold.Protein.ActiveResidues>
 ASP403  THR404  LEU406  ILE407  TYR408  ALA410  LYS411  TRP414  GLN425  TRP426 
 SER427  LYS428  LEU429  GLN430  VAL431  PHE432  ASP433  TYR453  SER462  ALA463 
 ILE464 

> <Gold.Protein.RotatedAtoms>
  216.7278   48.2254   17.6208 H   0  0  0  0  0  0  0  0  0  0  0  0  # atno 6581 bound_to 6565
  218.4725   47.9476   20.0770 H   0  0  0  0  0  0  0  0  0  0  0  0  # atno 6673 bound_to 6649
  221.7072   43.6743   18.9087 H   0  0  0  0  0  0  0  0  0  0  0  0  # atno 6813 bound_to 6795
  228.6475   44.9748   19.4568 H   0  0  0  0  0  0  0  0  0  0  0  0  # atno 7894 bound_to 7881
  230.5279   49.3785   20.0923 H   0  0  0  0  0  0  0  0  0  0  0  0  # atno 7898 bound_to 7886
  229.4453   47.6037   17.4537 H   0  0  0  0  0  0  0  0  0  0  0  0  # atno 7949 bound_to 7931
  227.0858   47.3537   14.3271 H   0  0  0  0  0  0  0  0  0  0  0  0  # atno 8033 bound_to 8017
  225.2827   46.3156   12.8937 H   0  0  0  0  0  0  0  0  0  0  0  0  # atno 8113 bound_to 8095
  221.8941   46.6468   10.9316 H   0  0  0  0  0  0  0  0  0  0  0  0  # atno 8173 bound_to 8159
  218.5986   44.8285   11.3220 H   0  0  0  0  0  0  0  0  0  0  0  0  # atno 8253 bound_to 8231
  215.8502   45.5587    9.7100 H   0  0  0  0  0  0  0  0  0  0  0  0  # atno 8321 bound_to 8305
  227.6362   47.5737    7.4902 H   0  0  0  0  0  0  0  0  0  0  0  0  # atno 9553 bound_to 9532
  222.5709   41.6395   10.3656 H   0  0  0  0  0  0  0  0  0  0  0  0  # atno 10193 bound_to 10177
  216.0426   49.9026   18.3825 LP  0  0  0  0  0  0  0  0  0  0  0  0  # atno 27193 bound_to 6328
  215.9545   50.0790   16.6617 LP  0  0  0  0  0  0  0  0  0  0  0  0  # atno 27194 bound_to 6328
  217.1188   47.7411   19.2580 LP  0  0  0  0  0  0  0  0  0  0  0  0  # atno 27195 bound_to 6565
  220.3661   46.0483   18.5616 LP  0  0  0  0  0  0  0  0  0  0  0  0  # atno 27196 bound_to 6568
  221.2366   46.8214   19.8439 LP  0  0  0  0  0  0  0  0  0  0  0  0  # atno 27197 bound_to 6568
  219.7818   49.0490   19.7166 LP  0  0  0  0  0  0  0  0  0  0  0  0  # atno 27198 bound_to 6649
  226.8801   48.2603   16.7866 LP  0  0  0  0  0  0  0  0  0  0  0  0  # atno 27199 bound_to 7884
  228.0357   49.4005   17.3905 LP  0  0  0  0  0  0  0  0  0  0  0  0  # atno 27200 bound_to 7884
  227.8444   46.0782   15.2531 LP  0  0  0  0  0  0  0  0  0  0  0  0  # atno 27201 bound_to 8017
  224.7049   48.0974   13.5951 LP  0  0  0  0  0  0  0  0  0  0  0  0  # atno 27202 bound_to 8020
  223.7916   46.9593   14.5281 LP  0  0  0  0  0  0  0  0  0  0  0  0  # atno 27203 bound_to 8020
  225.2281   44.9700   11.7852 LP  0  0  0  0  0  0  0  0  0  0  0  0  # atno 27204 bound_to 8095
  221.6763   44.3289   10.8186 LP  0  0  0  0  0  0  0  0  0  0  0  0  # atno 27205 bound_to 8098
  223.0891   44.0617   11.7842 LP  0  0  0  0  0  0  0  0  0  0  0  0  # atno 27206 bound_to 8098
  222.1127   47.1337   12.5906 LP  0  0  0  0  0  0  0  0  0  0  0  0  # atno 27207 bound_to 8159
  218.0787   47.7467   10.4718 LP  0  0  0  0  0  0  0  0  0  0  0  0  # atno 27208 bound_to 8162
  219.3181   48.2957   11.5500 LP  0  0  0  0  0  0  0  0  0  0  0  0  # atno 27209 bound_to 8162
  219.6920   45.7703   10.3418 LP  0  0  0  0  0  0  0  0  0  0  0  0  # atno 27210 bound_to 8231
  226.3539   47.3379    8.4638 LP  0  0  0  0  0  0  0  0  0  0  0  0  # atno 27211 bound_to 9532
  226.4337   48.6695    7.5220 LP  0  0  0  0  0  0  0  0  0  0  0  0  # atno 27212 bound_to 9532
  226.5030   44.4136   11.2384 LP  0  0  0  0  0  0  0  0  0  0  0  0  # atno 27213 bound_to 10092
  226.2360   44.2347    9.5364 LP  0  0  0  0  0  0  0  0  0  0  0  0  # atno 27214 bound_to 10092
  216.1442   47.0877   10.5094 LP  0  0  0  0  0  0  0  0  0  0  0  0  # atno 27215 bound_to 8305
  222.4238   42.6125   11.8114 LP  0  0  0  0  0  0  0  0  0  0  0  0  # atno 27216 bound_to 10177
  218.9616   43.3408   11.3786 LP  0  0  0  0  0  0  0  0  0  0  0  0  # atno 27217 bound_to 10180
  220.1630   43.2695   10.1329 LP  0  0  0  0  0  0  0  0  0  0  0  0  # atno 27218 bound_to 10180
  229.0266   45.9357   17.1293 LP  0  0  0  0  0  0  0  0  0  0  0  0  # atno 27219 bound_to 7931
  229.2469   44.3296   14.8134 LP  0  0  0  0  0  0  0  0  0  0  0  0  # atno 27220 bound_to 7934
  228.9492   44.8959   13.2038 LP  0  0  0  0  0  0  0  0  0  0  0  0  # atno 27221 bound_to 7934
  230.9792   44.8569   16.4469 LP  0  0  0  0  0  0  0  0  0  0  0  0  # atno 27222 bound_to 7726
  229.5873   44.0312   17.0641 LP  0  0  0  0  0  0  0  0  0  0  0  0  # atno 27223 bound_to 7726
  227.0276   43.6616   18.5948 LP  0  0  0  0  0  0  0  0  0  0  0  0  # atno 27224 bound_to 7804
  226.8858   45.3878   18.5774 LP  0  0  0  0  0  0  0  0  0  0  0  0  # atno 27225 bound_to 7804
  230.1594   45.8492   19.4491 LP  0  0  0  0  0  0  0  0  0  0  0  0  # atno 27226 bound_to 7881
  230.4143   48.4818   18.7388 LP  0  0  0  0  0  0  0  0  0  0  0  0  # atno 27227 bound_to 7886
  230.8608   47.7863   20.1472 LP  0  0  0  0  0  0  0  0  0  0  0  0  # atno 27228 bound_to 7886

> <Gold.Score>
     Fitness  S(hb_ext) S(vdw_ext)  S(hb_int)    S(int)      intcor
     30.78       0.37      23.13       0.00      -1.39      -0.75

> <Gold.Goldscore.Fitness>
30.7796

> <Gold.Goldscore.Internal.Vdw>
-1.6124

> <Gold.Goldscore.Internal.Torsion>
-0.5342

> <Gold.Goldscore.External.Vdw>
23.1307

> <Gold.Goldscore.Internal.HBond>
0.0000

> <Gold.Goldscore.External.HBond>
0.3668

> <Gold.Goldscore.Internal.Correction>
-0.7548

> <Gold.Goldscore.Hbonds>
donor molecule, donor type, donor heavy atom, donor atom, acceptor molecule, acceptor atom, score
      P1  H  8017  8033       L1     9  0.08
      L1  H     8    22       P1  7884  0.10

> <Gold.Goldscore.Internal.Vdw.Weighted>
-1.6124

> <Gold.Goldscore.Internal.Torsion.Weighted>
-0.5342

> <Gold.Goldscore.External.Vdw.Weighted>
31.8047

> <Gold.Goldscore.Internal.HBond.Weighted>
0.0000

> <Gold.Goldscore.External.HBond.Weighted>
0.3668

> <Gold.Goldscore.Internal.Correction.Weighted>
-0.7548

> <Gold.Rescore>
     Score     S(PLP)   S(hbond)     S(cho)   S(metal)  DE(clash)   DE(tors)     intcor
     35.82     -31.84       2.00       0.00       0.00       0.00       1.01       ----

> <Gold.PLP.Fitness>
35.8177

> <Gold.PLP.PLP>
-31.8392

> <Gold.PLP.part.hbond>
-2.1565

> <Gold.PLP.part.metal>
0.0000

> <Gold.PLP.part.buried>
-6.2659

> <Gold.PLP.part.nonpolar>
-25.2436

> <Gold.PLP.part.repulsive>
0.6740

> <Gold.PLP.ligand.clash>
0.0000

> <Gold.PLP.ligand.torsion>
1.0108

> <Gold.PLP.Chemscore.Hbond>
2.0000

> <Gold.PLP.Chemscore.CHOScore>
0.0000

> <Gold.PLP.Chemscore.Metal>
0.0000

> <Gold.Chemscore.Hbonds>
donor molecule, donor type, donor heavy atom, donor atom, acceptor molecule, acceptor atom, score
      L1  H     8    22       P1  7884  0.91
      P1  H  8017  8033       L1     9  0.66

> <Gold.PLP.Chemscore.Internal.Correction>
   9.000000E+99

#       Name:                CT1002167954
#       Creating user name   hitesit
#       Creation time:       Sun Apr 16 23:01:20 2023


#       File generated by GOLD software.
#

@<TRIPOS>MOLECULE
CT1002167954|ligand_prepared|mol2|1|dock3
    29    30     1
SMALL
NO_CHARGES


@<TRIPOS>ATOM
      1 C1         224.6977  51.5546  12.9382 C.3            1 RES1               0.0000
      2 C2         223.2964  51.1789  12.4149 C.ar           1 RES1               0.0000
      3 C3         224.9581  50.6595  14.1462 C.2            1 RES1               0.0000
      4 C4         225.6609  51.3295  11.7779 C.2            1 RES1               0.0000
      5 C5         224.8233  53.0301  13.3840 C.3            1 RES1               0.0000
      6 C6         222.7282  49.9485  12.7314 C.ar           1 RES1               0.0000
      7 C7         222.5600  52.0516  11.6182 C.ar           1 RES1               0.0000
      8 N8         225.8428  49.6330  13.9929 N.am           1 RES1               0.0000
      9 O9         224.3666  50.8277  15.2055 O.2            1 RES1               0.0000
     10 N10        226.6018  50.3417  11.9069 N.am           1 RES1               0.0000
     11 O11        225.6029  51.9876  10.7465 O.2            1 RES1               0.0000
     12 C12        226.1063  53.3348  14.1411 C.3            1 RES1               0.0000
     13 C13        221.4682  49.6043  12.2707 C.ar           1 RES1               0.0000
     14 C14        221.3002  51.7052  11.1584 C.ar           1 RES1               0.0000
     15 C15        226.7166  49.4628  12.9493 C.2            1 RES1               0.0000
     16 C16        220.7532  50.4824  11.4844 C.ar           1 RES1               0.0000
     17 O17        227.5546  48.5658  12.9683 O.2            1 RES1               0.0000
     18 H18        224.7762  53.6725  12.4960 H              1 RES1               0.0000
     19 H19        223.9680  53.2796  14.0240 H              1 RES1               0.0000
     20 H20        223.2769  49.2436  13.3470 H              1 RES1               0.0000
     21 H21        222.9707  53.0185  11.3483 H              1 RES1               0.0000
     22 H22        225.8558  48.9265  14.7216 H              1 RES1               0.0000
     23 H23        227.2795  50.2534  11.1563 H              1 RES1               0.0000
     24 H24        226.1437  54.3829  14.4304 H              1 RES1               0.0000
     25 H25        226.1740  52.7314  15.0439 H              1 RES1               0.0000
     26 H26        226.9775  53.1219  13.5250 H              1 RES1               0.0000
     27 H27        221.0428  48.6401  12.5290 H              1 RES1               0.0000
     28 H28        220.7413  52.3992  10.5393 H              1 RES1               0.0000
     29 H29        219.7660  50.2126  11.1240 H              1 RES1               0.0000
@<TRIPOS>BOND
    1    1    2 1     
    2    1    3 1     
    3    1    4 1     
    4    1    5 1     
    5    2    6 ar    
    6    2    7 ar    
    7    3    8 1     
    8    3    9 2     
    9    4   10 1     
   10    4   11 2     
   11    5   12 1     
   12    5   18 1     
   13    5   19 1     
   14    6   13 ar    
   15    6   20 1     
   16    7   14 ar    
   17    7   21 1     
   18    8   15 1     
   19    8   22 1     
   20   10   15 1     
   21   10   23 1     
   22   12   24 1     
   23   12   25 1     
   24   12   26 1     
   25   13   16 ar    
   26   13   27 1     
   27   14   16 ar    
   28   14   28 1     
   29   15   17 2     
   30   16   29 1     
@<TRIPOS>SUBSTRUCTURE
      1 RES1           1
@<TRIPOS>SET
DONOR_HYDROGENS      STATIC     ATOMS    <user>   **** ""
2 22 23
ATOM$RED        STATIC     ATOMS    COLORGROUP SYSTEM
2 22 23
@<TRIPOS>COMMENT
> <Gold.Version>
2022.3.0

> <Gold.Id.Protein>
unknown|4d1n_clean|pdb

> <Gold.Protein.RotatedTorsions>
[ 6581 6565 6566 6567 ] final   73.97 input  113.40 | X-H torsion
[ 6673 6649 6650 6651 ] final  153.95 input  128.31 | X-H torsion
[ 8033 8017 8018 8019 ] final  -41.35 input   38.97 | X-H torsion
[ 8113 8095 8096 8097 ] final  168.51 input   94.22 | X-H torsion
[ 8173 8159 8160 8161 ] final -133.43 input   69.09 | X-H torsion
[ 8253 8231 8232 8233 ] final   69.74 input   84.65 | X-H torsion
[ 9553 9532 9531 9529 ] final  141.96 input   60.02 | X-H torsion
[ 8321 8305 8306 8307 ] final   94.07 input   94.69 | X-H torsion
[ 10193 10177 10178 10179 ] final  121.18 input   41.54 | X-H torsion
[ 7949 7931 7932 7933 ] final -167.77 input   80.35 | X-H torsion
[ 7894 7881 7882 7883 ] final  178.07 input   97.23 | X-H torsion
[ 7898 7886 7885 7882 ] final  128.17 input   59.98 | X-H torsion
[ 6813 6795 6796 6797 ] final  -22.47 input  114.70 | X-H torsion
[ 27193 6328 6327 6326 ] final   64.10 input    0.00 | X-H torsion
[ 27196 6568 6567 6566 ] final -160.93 input   -0.00 | X-H torsion
[ 27199 7884 7883 7882 ] final   70.61 input   -0.00 | X-H torsion
[ 27202 8020 8019 8018 ] final   95.71 input   -0.00 | X-H torsion
[ 27205 8098 8097 8096 ] final -112.93 input   -0.00 | X-H torsion
[ 27208 8162 8161 8160 ] final   65.59 input    0.00 | X-H torsion
[ 27213 10092 10091 10090 ] final  -46.63 input    0.00 | X-H torsion
[ 27217 10180 10179 10178 ] final   29.14 input    0.00 | X-H torsion
[ 27220 7934 7933 7932 ] final  -86.27 input    0.00 | X-H torsion
[ 27222 7726 7725 7724 ] final  125.94 input    0.00 | X-H torsion
[ 27224 7804 7803 7802 ] final   95.86 input    0.00 | X-H torsion

> <Gold.Protein.ActiveResidues>
 ASP403  THR404  LEU406  ILE407  TYR408  ALA410  LYS411  TRP414  GLN425  TRP426 
 SER427  LYS428  LEU429  GLN430  VAL431  PHE432  ASP433  TYR453  SER462  ALA463 
 ILE464 

> <Gold.Protein.RotatedAtoms>
  217.0307   48.7564   18.8791 H   0  0  0  0  0  0  0  0  0  0  0  0  # atno 6581 bound_to 6565
  219.0218   49.3422   20.1605 H   0  0  0  0  0  0  0  0  0  0  0  0  # atno 6673 bound_to 6649
  221.4457   43.4410   20.1884 H   0  0  0  0  0  0  0  0  0  0  0  0  # atno 6813 bound_to 6795
  229.2306   45.4895   20.3134 H   0  0  0  0  0  0  0  0  0  0  0  0  # atno 7894 bound_to 7881
  230.3968   49.4599   19.5665 H   0  0  0  0  0  0  0  0  0  0  0  0  # atno 7898 bound_to 7886
  229.6110   47.5451   17.4477 H   0  0  0  0  0  0  0  0  0  0  0  0  # atno 7949 bound_to 7931
  227.4530   47.1362   14.0206 H   0  0  0  0  0  0  0  0  0  0  0  0  # atno 8033 bound_to 8017
  225.8970   46.0549   11.9052 H   0  0  0  0  0  0  0  0  0  0  0  0  # atno 8113 bound_to 8095
  222.4268   46.1422   11.9214 H   0  0  0  0  0  0  0  0  0  0  0  0  # atno 8173 bound_to 8159
  219.0170   44.4360   10.7773 H   0  0  0  0  0  0  0  0  0  0  0  0  # atno 8253 bound_to 8231
  215.8267   47.1979    9.9837 H   0  0  0  0  0  0  0  0  0  0  0  0  # atno 8321 bound_to 8305
  226.3335   47.3612    8.4577 H   0  0  0  0  0  0  0  0  0  0  0  0  # atno 9553 bound_to 9532
  222.6696   42.3234   11.9465 H   0  0  0  0  0  0  0  0  0  0  0  0  # atno 10193 bound_to 10177
  216.1132   50.2163   16.6938 LP  0  0  0  0  0  0  0  0  0  0  0  0  # atno 27193 bound_to 6328
  215.8840   49.7653   18.3503 LP  0  0  0  0  0  0  0  0  0  0  0  0  # atno 27194 bound_to 6328
  216.8269   47.2295   18.0455 LP  0  0  0  0  0  0  0  0  0  0  0  0  # atno 27195 bound_to 6565
  220.7802   46.3910   20.0674 LP  0  0  0  0  0  0  0  0  0  0  0  0  # atno 27196 bound_to 6568
  220.8225   46.4787   18.3381 LP  0  0  0  0  0  0  0  0  0  0  0  0  # atno 27197 bound_to 6568
  219.2464   47.6897   19.6351 LP  0  0  0  0  0  0  0  0  0  0  0  0  # atno 27198 bound_to 6649
  227.9549   49.3922   17.5213 LP  0  0  0  0  0  0  0  0  0  0  0  0  # atno 27199 bound_to 7884
  226.9608   48.2685   16.6558 LP  0  0  0  0  0  0  0  0  0  0  0  0  # atno 27200 bound_to 7884
  227.4876   46.2895   15.5510 LP  0  0  0  0  0  0  0  0  0  0  0  0  # atno 27201 bound_to 8017
  224.8184   48.0924   13.7348 LP  0  0  0  0  0  0  0  0  0  0  0  0  # atno 27202 bound_to 8020
  223.6781   46.9644   14.3884 LP  0  0  0  0  0  0  0  0  0  0  0  0  # atno 27203 bound_to 8020
  224.6220   45.2272   12.7605 LP  0  0  0  0  0  0  0  0  0  0  0  0  # atno 27204 bound_to 8095
  221.8604   44.3321   10.6242 LP  0  0  0  0  0  0  0  0  0  0  0  0  # atno 27205 bound_to 8098
  222.9049   44.0585   11.9786 LP  0  0  0  0  0  0  0  0  0  0  0  0  # atno 27206 bound_to 8098
  221.5836   47.6348   11.6075 LP  0  0  0  0  0  0  0  0  0  0  0  0  # atno 27207 bound_to 8159
  219.4866   48.2451   10.7304 LP  0  0  0  0  0  0  0  0  0  0  0  0  # atno 27208 bound_to 8162
  217.9103   47.7974   11.2915 LP  0  0  0  0  0  0  0  0  0  0  0  0  # atno 27209 bound_to 8162
  219.2790   46.1576   10.8793 LP  0  0  0  0  0  0  0  0  0  0  0  0  # atno 27210 bound_to 8231
  226.4584   48.6735    7.5037 LP  0  0  0  0  0  0  0  0  0  0  0  0  # atno 27211 bound_to 9532
  227.6413   47.5478    7.5077 LP  0  0  0  0  0  0  0  0  0  0  0  0  # atno 27212 bound_to 9532
  226.9023   44.4566   11.0572 LP  0  0  0  0  0  0  0  0  0  0  0  0  # atno 27213 bound_to 10092
  225.8367   44.1918    9.7176 LP  0  0  0  0  0  0  0  0  0  0  0  0  # atno 27214 bound_to 10092
  216.1669   45.5010   10.2444 LP  0  0  0  0  0  0  0  0  0  0  0  0  # atno 27215 bound_to 8305
  222.3278   41.9469   10.2731 LP  0  0  0  0  0  0  0  0  0  0  0  0  # atno 27216 bound_to 10177
  220.4226   43.3783   10.6879 LP  0  0  0  0  0  0  0  0  0  0  0  0  # atno 27217 bound_to 10180
  218.7020   43.2320   10.8236 LP  0  0  0  0  0  0  0  0  0  0  0  0  # atno 27218 bound_to 10180
  228.8661   45.9926   17.1352 LP  0  0  0  0  0  0  0  0  0  0  0  0  # atno 27219 bound_to 7931
  229.2915   45.0222   13.2704 LP  0  0  0  0  0  0  0  0  0  0  0  0  # atno 27220 bound_to 7934
  228.9045   44.2033   14.7468 LP  0  0  0  0  0  0  0  0  0  0  0  0  # atno 27221 bound_to 7934
  229.6798   43.8318   16.8609 LP  0  0  0  0  0  0  0  0  0  0  0  0  # atno 27222 bound_to 7726
  230.8866   45.0563   16.6502 LP  0  0  0  0  0  0  0  0  0  0  0  0  # atno 27223 bound_to 7726
  226.6638   44.6440   19.3923 LP  0  0  0  0  0  0  0  0  0  0  0  0  # atno 27224 bound_to 7804
  227.2496   44.4054   17.7799 LP  0  0  0  0  0  0  0  0  0  0  0  0  # atno 27225 bound_to 7804
  229.5883   45.3449   18.6100 LP  0  0  0  0  0  0  0  0  0  0  0  0  # atno 27226 bound_to 7881
  230.5533   47.9774   18.9135 LP  0  0  0  0  0  0  0  0  0  0  0  0  # atno 27227 bound_to 7886
  230.8538   48.2089   20.5018 LP  0  0  0  0  0  0  0  0  0  0  0  0  # atno 27228 bound_to 7886

> <Gold.Score>
     Fitness  S(hb_ext) S(vdw_ext)  S(hb_int)    S(int)      intcor
     30.54       8.16      17.12       0.00      -1.17      -0.75

> <Gold.Goldscore.Fitness>
30.5403

> <Gold.Goldscore.Internal.Vdw>
-1.3573

> <Gold.Goldscore.Internal.Torsion>
-0.5637

> <Gold.Goldscore.External.Vdw>
17.1247

> <Gold.Goldscore.Internal.HBond>
0.0000

> <Gold.Goldscore.External.HBond>
8.1600

> <Gold.Goldscore.Internal.Correction>
-0.7548

> <Gold.Goldscore.Hbonds>
donor molecule, donor type, donor heavy atom, donor atom, acceptor molecule, acceptor atom, score
      P1  H  6803  6824       L1     9  1.00
      P1  H  8017  8033       L1    17  0.90
      P1  H  8102  8119       L1    11  0.18

> <Gold.Goldscore.Internal.Vdw.Weighted>
-1.3573

> <Gold.Goldscore.Internal.Torsion.Weighted>
-0.5637

> <Gold.Goldscore.External.Vdw.Weighted>
23.5464

> <Gold.Goldscore.Internal.HBond.Weighted>
0.0000

> <Gold.Goldscore.External.HBond.Weighted>
8.1600

> <Gold.Goldscore.Internal.Correction.Weighted>
-0.7548

> <Gold.Rescore>
     Score     S(PLP)   S(hbond)     S(cho)   S(metal)  DE(clash)   DE(tors)     intcor
     27.27     -20.64       2.98       0.00       0.00       0.90       0.71       ----

> <Gold.PLP.Fitness>
27.2653

> <Gold.PLP.PLP>
-20.6357

> <Gold.PLP.part.hbond>
-3.0000

> <Gold.PLP.part.metal>
0.0000

> <Gold.PLP.part.buried>
-1.9254

> <Gold.PLP.part.nonpolar>
-17.3739

> <Gold.PLP.part.repulsive>
0.7450

> <Gold.PLP.ligand.clash>
0.8965

> <Gold.PLP.ligand.torsion>
0.7118

> <Gold.PLP.Chemscore.Hbond>
2.9833

> <Gold.PLP.Chemscore.CHOScore>
0.0000

> <Gold.PLP.Chemscore.Metal>
0.0000

> <Gold.Chemscore.Hbonds>
donor molecule, donor type, donor heavy atom, donor atom, acceptor molecule, acceptor atom, score
      L1  H     8    22       P1  8020  0.02
      P1  H  6803  6824       L1     9  0.63
      P1  H  8017  8033       L1    17  1.00
      P1  H  8102  8119       L1    11  0.15

> <Gold.PLP.Chemscore.Internal.Correction>
   9.000000E+99

#       Name:                CT1002167954
#       Creating user name   hitesit
#       Creation time:       Sun Apr 16 23:01:22 2023


#       File generated by GOLD software.
#

@<TRIPOS>MOLECULE
CT1002167954|ligand_prepared|mol2|1|dock8
    29    30     1
SMALL
NO_CHARGES


@<TRIPOS>ATOM
      1 C1         227.9006  50.7009  12.2641 C.3            1 RES1               0.0000
      2 C2         228.1530  49.3434  11.5768 C.ar           1 RES1               0.0000
      3 C3         226.5654  51.2102  11.7292 C.2            1 RES1               0.0000
      4 C4         227.9063  50.4272  13.7640 C.2            1 RES1               0.0000
      5 C5         228.9855  51.7624  11.9680 C.3            1 RES1               0.0000
      6 C6         229.0267  49.2471  10.4978 C.ar           1 RES1               0.0000
      7 C7         227.5228  48.1804  12.0113 C.ar           1 RES1               0.0000
      8 N8         225.4885  51.1570  12.5644 N.am           1 RES1               0.0000
      9 O9         226.4504  51.6154  10.5791 O.2            1 RES1               0.0000
     10 N10        226.7364  50.6078  14.4541 N.am           1 RES1               0.0000
     11 O11        228.9092  50.0408  14.3515 O.2            1 RES1               0.0000
     12 C12        228.8321  53.0389  12.7800 C.3            1 RES1               0.0000
     13 C13        229.2640  48.0317   9.8775 C.ar           1 RES1               0.0000
     14 C14        227.7614  46.9660  11.3894 C.ar           1 RES1               0.0000
     15 C15        225.5200  50.9307  13.9170 C.2            1 RES1               0.0000
     16 C16        228.6320  46.8904  10.3231 C.ar           1 RES1               0.0000
     17 O17        224.5010  51.0217  14.5955 O.2            1 RES1               0.0000
     18 H18        229.9709  51.3278  12.1761 H              1 RES1               0.0000
     19 H19        228.9494  52.0161  10.9013 H              1 RES1               0.0000
     20 H20        229.5313  50.1350  10.1316 H              1 RES1               0.0000
     21 H21        226.8331  48.2163  12.8477 H              1 RES1               0.0000
     22 H22        224.5754  51.2986  12.1444 H              1 RES1               0.0000
     23 H23        226.7758  50.4907  15.4616 H              1 RES1               0.0000
     24 H24        229.6182  53.7495  12.5337 H              1 RES1               0.0000
     25 H25        227.8729  53.5113  12.5785 H              1 RES1               0.0000
     26 H26        228.8883  52.8271  13.8457 H              1 RES1               0.0000
     27 H27        229.9490  47.9777   9.0378 H              1 RES1               0.0000
     28 H28        227.2613  46.0704  11.7431 H              1 RES1               0.0000
     29 H29        228.8184  45.9383   9.8372 H              1 RES1               0.0000
@<TRIPOS>BOND
    1    1    2 1     
    2    1    3 1     
    3    1    4 1     
    4    1    5 1     
    5    2    6 ar    
    6    2    7 ar    
    7    3    8 1     
    8    3    9 2     
    9    4   10 1     
   10    4   11 2     
   11    5   12 1     
   12    5   18 1     
   13    5   19 1     
   14    6   13 ar    
   15    6   20 1     
   16    7   14 ar    
   17    7   21 1     
   18    8   15 1     
   19    8   22 1     
   20   10   15 1     
   21   10   23 1     
   22   12   24 1     
   23   12   25 1     
   24   12   26 1     
   25   13   16 ar    
   26   13   27 1     
   27   14   16 ar    
   28   14   28 1     
   29   15   17 2     
   30   16   29 1     
@<TRIPOS>SUBSTRUCTURE
      1 RES1           1
@<TRIPOS>SET
DONOR_HYDROGENS      STATIC     ATOMS    <user>   **** ""
2 22 23
ATOM$RED        STATIC     ATOMS    COLORGROUP SYSTEM
2 22 23
@<TRIPOS>COMMENT
> <Gold.Version>
2022.3.0

> <Gold.Id.Protein>
unknown|4d1n_clean|pdb

> <Gold.Protein.RotatedTorsions>
[ 6581 6565 6566 6567 ] final  178.25 input  113.40 | X-H torsion
[ 6673 6649 6650 6651 ] final  -99.15 input  128.31 | X-H torsion
[ 8033 8017 8018 8019 ] final   24.46 input   38.97 | X-H torsion
[ 8113 8095 8096 8097 ] final   75.92 input   94.22 | X-H torsion
[ 8173 8159 8160 8161 ] final  -87.92 input   69.09 | X-H torsion
[ 8253 8231 8232 8233 ] final  -94.71 input   84.65 | X-H torsion
[ 9553 9532 9531 9529 ] final -153.96 input   60.02 | X-H torsion
[ 8321 8305 8306 8307 ] final -154.72 input   94.69 | X-H torsion
[ 10193 10177 10178 10179 ] final  -10.57 input   41.54 | X-H torsion
[ 7949 7931 7932 7933 ] final  122.82 input   80.35 | X-H torsion
[ 7894 7881 7882 7883 ] final  171.64 input   97.23 | X-H torsion
[ 7898 7886 7885 7882 ] final  -54.51 input   59.98 | X-H torsion
[ 6813 6795 6796 6797 ] final  125.26 input  114.70 | X-H torsion
[ 27193 6328 6327 6326 ] final  103.28 input    0.00 | X-H torsion
[ 27196 6568 6567 6566 ] final  139.56 input   -0.00 | X-H torsion
[ 27199 7884 7883 7882 ] final -137.24 input   -0.00 | X-H torsion
[ 27202 8020 8019 8018 ] final   58.48 input   -0.00 | X-H torsion
[ 27205 8098 8097 8096 ] final   15.92 input   -0.00 | X-H torsion
[ 27208 8162 8161 8160 ] final  -78.25 input    0.00 | X-H torsion
[ 27213 10092 10091 10090 ] final   14.19 input    0.00 | X-H torsion
[ 27217 10180 10179 10178 ] final   72.80 input    0.00 | X-H torsion
[ 27220 7934 7933 7932 ] final  139.18 input    0.00 | X-H torsion
[ 27222 7726 7725 7724 ] final   72.60 input    0.00 | X-H torsion
[ 27224 7804 7803 7802 ] final  173.93 input    0.00 | X-H torsion

> <Gold.Protein.ActiveResidues>
 ASP403  THR404  LEU406  ILE407  TYR408  ALA410  LYS411  TRP414  GLN425  TRP426 
 SER427  LYS428  LEU429  GLN430  VAL431  PHE432  ASP433  TYR453  SER462  ALA463 
 ILE464 

> <Gold.Protein.RotatedAtoms>
  216.7271   48.2108   17.6168 H   0  0  0  0  0  0  0  0  0  0  0  0  # atno 6581 bound_to 6565
  219.9318   48.4638   19.5092 H   0  0  0  0  0  0  0  0  0  0  0  0  # atno 6673 bound_to 6649
  221.4766   44.9954   19.5280 H   0  0  0  0  0  0  0  0  0  0  0  0  # atno 6813 bound_to 6795
  229.3152   45.5403   20.3211 H   0  0  0  0  0  0  0  0  0  0  0  0  # atno 7894 bound_to 7881
  230.8094   47.6481   19.7976 H   0  0  0  0  0  0  0  0  0  0  0  0  # atno 7898 bound_to 7886
  230.1184   46.6828   17.2949 H   0  0  0  0  0  0  0  0  0  0  0  0  # atno 7949 bound_to 7931
  226.8649   47.3536   14.7528 H   0  0  0  0  0  0  0  0  0  0  0  0  # atno 8033 bound_to 8017
  225.2540   44.9691   11.7673 H   0  0  0  0  0  0  0  0  0  0  0  0  # atno 8113 bound_to 8095
  222.2163   46.1941   11.2807 H   0  0  0  0  0  0  0  0  0  0  0  0  # atno 8173 bound_to 8159
  219.1250   46.1496   11.0586 H   0  0  0  0  0  0  0  0  0  0  0  0  # atno 8253 bound_to 8231
  216.4185   46.2069   10.8901 H   0  0  0  0  0  0  0  0  0  0  0  0  # atno 8321 bound_to 8305
  227.2112   47.0609    8.1026 H   0  0  0  0  0  0  0  0  0  0  0  0  # atno 9553 bound_to 9532
  221.9781   42.5288   10.4983 H   0  0  0  0  0  0  0  0  0  0  0  0  # atno 10193 bound_to 10177
  216.4905   50.5046   17.0281 LP  0  0  0  0  0  0  0  0  0  0  0  0  # atno 27193 bound_to 6328
  215.5066   49.4769   18.0160 LP  0  0  0  0  0  0  0  0  0  0  0  0  # atno 27194 bound_to 6328
  217.1195   47.7553   19.2619 LP  0  0  0  0  0  0  0  0  0  0  0  0  # atno 27195 bound_to 6565
  221.3370   46.9194   19.6805 LP  0  0  0  0  0  0  0  0  0  0  0  0  # atno 27196 bound_to 6568
  220.2656   45.9503   18.7250 LP  0  0  0  0  0  0  0  0  0  0  0  0  # atno 27197 bound_to 6568
  218.3595   48.5459   20.2699 LP  0  0  0  0  0  0  0  0  0  0  0  0  # atno 27198 bound_to 6649
  227.2522   48.3788   16.3788 LP  0  0  0  0  0  0  0  0  0  0  0  0  # atno 27199 bound_to 7884
  227.6635   49.2820   17.7983 LP  0  0  0  0  0  0  0  0  0  0  0  0  # atno 27200 bound_to 7884
  228.0590   46.0783   14.8395 LP  0  0  0  0  0  0  0  0  0  0  0  0  # atno 27201 bound_to 8017
  224.9982   47.9271   14.2307 LP  0  0  0  0  0  0  0  0  0  0  0  0  # atno 27202 bound_to 8020
  223.4983   47.1296   13.8925 LP  0  0  0  0  0  0  0  0  0  0  0  0  # atno 27203 bound_to 8020
  225.2564   46.2985   12.8966 LP  0  0  0  0  0  0  0  0  0  0  0  0  # atno 27204 bound_to 8095
  223.2435   44.1009   11.3132 LP  0  0  0  0  0  0  0  0  0  0  0  0  # atno 27205 bound_to 8098
  221.5219   44.2897   11.2895 LP  0  0  0  0  0  0  0  0  0  0  0  0  # atno 27206 bound_to 8098
  221.7927   47.5833   12.2439 LP  0  0  0  0  0  0  0  0  0  0  0  0  # atno 27207 bound_to 8159
  218.2019   47.9488   11.7168 LP  0  0  0  0  0  0  0  0  0  0  0  0  # atno 27208 bound_to 8162
  219.1949   48.0936   10.3050 LP  0  0  0  0  0  0  0  0  0  0  0  0  # atno 27209 bound_to 8162
  219.1725   44.4666   10.6018 LP  0  0  0  0  0  0  0  0  0  0  0  0  # atno 27210 bound_to 8231
  225.9762   48.1175    8.1813 LP  0  0  0  0  0  0  0  0  0  0  0  0  # atno 27211 bound_to 9532
  227.2395   48.4062    7.1877 LP  0  0  0  0  0  0  0  0  0  0  0  0  # atno 27212 bound_to 9532
  227.2155   44.4346   10.2386 LP  0  0  0  0  0  0  0  0  0  0  0  0  # atno 27213 bound_to 10092
  225.5235   44.2138   10.5362 LP  0  0  0  0  0  0  0  0  0  0  0  0  # atno 27214 bound_to 10092
  215.5942   46.4603    9.3671 LP  0  0  0  0  0  0  0  0  0  0  0  0  # atno 27215 bound_to 8305
  223.0007   41.7471   11.6823 LP  0  0  0  0  0  0  0  0  0  0  0  0  # atno 27216 bound_to 10177
  220.1460   43.2655   10.1172 LP  0  0  0  0  0  0  0  0  0  0  0  0  # atno 27217 bound_to 10180
  218.9786   43.3449   11.3943 LP  0  0  0  0  0  0  0  0  0  0  0  0  # atno 27218 bound_to 10180
  228.3744   46.8280   17.2832 LP  0  0  0  0  0  0  0  0  0  0  0  0  # atno 27219 bound_to 7931
  228.4094   44.1744   14.2977 LP  0  0  0  0  0  0  0  0  0  0  0  0  # atno 27220 bound_to 7934
  229.7866   45.0512   13.7194 LP  0  0  0  0  0  0  0  0  0  0  0  0  # atno 27221 bound_to 7934
  230.2259   43.6949   16.3248 LP  0  0  0  0  0  0  0  0  0  0  0  0  # atno 27222 bound_to 7726
  230.3406   45.1931   17.1863 LP  0  0  0  0  0  0  0  0  0  0  0  0  # atno 27223 bound_to 7726
  226.8710   45.3858   18.6199 LP  0  0  0  0  0  0  0  0  0  0  0  0  # atno 27224 bound_to 7804
  227.0424   43.6636   18.5523 LP  0  0  0  0  0  0  0  0  0  0  0  0  # atno 27225 bound_to 7804
  229.5054   45.2952   18.6024 LP  0  0  0  0  0  0  0  0  0  0  0  0  # atno 27226 bound_to 7881
  230.6377   49.1578   20.3807 LP  0  0  0  0  0  0  0  0  0  0  0  0  # atno 27227 bound_to 7886
  230.3540   48.8523   18.8019 LP  0  0  0  0  0  0  0  0  0  0  0  0  # atno 27228 bound_to 7886

> <Gold.Score>
     Fitness  S(hb_ext) S(vdw_ext)  S(hb_int)    S(int)      intcor
     28.87       5.94      17.21       0.00      -0.73      -0.75

> <Gold.Goldscore.Fitness>
28.8726

> <Gold.Goldscore.Internal.Vdw>
-1.0389

> <Gold.Goldscore.Internal.Torsion>
-0.4472

> <Gold.Goldscore.External.Vdw>
17.2109

> <Gold.Goldscore.Internal.HBond>
0.0000

> <Gold.Goldscore.External.HBond>
5.9389

> <Gold.Goldscore.Internal.Correction>
-0.7548

> <Gold.Goldscore.Hbonds>
donor molecule, donor type, donor heavy atom, donor atom, acceptor molecule, acceptor atom, score
      P1  H  6803  6824       L1    17  0.99

> <Gold.Goldscore.Internal.Vdw.Weighted>
-1.0389

> <Gold.Goldscore.Internal.Torsion.Weighted>
-0.4472

> <Gold.Goldscore.External.Vdw.Weighted>
23.6650

> <Gold.Goldscore.Internal.HBond.Weighted>
0.0000

> <Gold.Goldscore.External.HBond.Weighted>
5.9389

> <Gold.Goldscore.Internal.Correction.Weighted>
-0.7548

> <Gold.Rescore>
     Score     S(PLP)   S(hbond)     S(cho)   S(metal)  DE(clash)   DE(tors)     intcor
     27.77     -23.36       1.75       0.00       0.00       0.00       0.43       ----

> <Gold.PLP.Fitness>
27.7665

> <Gold.PLP.PLP>
-23.3644

> <Gold.PLP.part.hbond>
-2.0000

> <Gold.PLP.part.metal>
0.0000

> <Gold.PLP.part.buried>
-4.6764

> <Gold.PLP.part.nonpolar>
-16.8874

> <Gold.PLP.part.repulsive>
0.3257

> <Gold.PLP.ligand.clash>
0.0000

> <Gold.PLP.ligand.torsion>
0.4270

> <Gold.PLP.Chemscore.Hbond>
1.7520

> <Gold.PLP.Chemscore.CHOScore>
0.0000

> <Gold.PLP.Chemscore.Metal>
0.0000

> <Gold.Chemscore.Hbonds>
donor molecule, donor type, donor heavy atom, donor atom, acceptor molecule, acceptor atom, score
      P1  H  6803  6824       L1    17  1.00
      P1  H  8102  8119       L1     9  0.36

> <Gold.PLP.Chemscore.Internal.Correction>
   9.000000E+99

#       Name:                CT1002167954
#       Creating user name   hitesit
#       Creation time:       Sun Apr 16 23:01:21 2023


#       File generated by GOLD software.
#

@<TRIPOS>MOLECULE
CT1002167954|ligand_prepared|mol2|1|dock5
    29    30     1
SMALL
NO_CHARGES


@<TRIPOS>ATOM
      1 C1         231.7214  47.0448  10.6233 C.3            1 RES1               0.0000
      2 C2         232.0343  48.3863  11.3171 C.ar           1 RES1               0.0000
      3 C3         231.1363  46.1330  11.6977 C.2            1 RES1               0.0000
      4 C4         230.7564  47.3668   9.4876 C.2            1 RES1               0.0000
      5 C5         232.9625  46.3522  10.0138 C.3            1 RES1               0.0000
      6 C6         231.0398  49.0793  12.0008 C.ar           1 RES1               0.0000
      7 C7         233.3110  48.9410  11.2845 C.ar           1 RES1               0.0000
      8 N8         229.7950  45.8895  11.6581 N.am           1 RES1               0.0000
      9 O9         231.8345  45.6664  12.5895 O.2            1 RES1               0.0000
     10 N10        229.4830  46.8669   9.5659 N.am           1 RES1               0.0000
     11 O11        231.0824  48.0628   8.5339 O.2            1 RES1               0.0000
     12 C12        232.6707  44.9834   9.4193 C.3            1 RES1               0.0000
     13 C13        231.3124  50.2819  12.6316 C.ar           1 RES1               0.0000
     14 C14        233.5813  50.1438  11.9158 C.ar           1 RES1               0.0000
     15 C15        228.9494  46.1685  10.6146 C.2            1 RES1               0.0000
     16 C16        232.5832  50.8147  12.5899 C.ar           1 RES1               0.0000
     17 O17        227.7788  45.7991  10.6355 O.2            1 RES1               0.0000
     18 H18        233.3769  46.9970   9.2289 H              1 RES1               0.0000
     19 H19        233.7249  46.2426  10.7949 H              1 RES1               0.0000
     20 H20        230.0332  48.6768  12.0423 H              1 RES1               0.0000
     21 H21        234.1115  48.4313  10.7592 H              1 RES1               0.0000
     22 H22        229.3825  45.4605  12.4803 H              1 RES1               0.0000
     23 H23        228.8766  47.0304   8.7684 H              1 RES1               0.0000
     24 H24        233.5749  44.5418   9.0056 H              1 RES1               0.0000
     25 H25        232.2805  44.3085  10.1782 H              1 RES1               0.0000
     26 H26        231.9345  45.0584   8.6216 H              1 RES1               0.0000
     27 H27        230.5230  50.8066  13.1597 H              1 RES1               0.0000
     28 H28        234.5828  50.5598  11.8799 H              1 RES1               0.0000
     29 H29        232.7965  51.7566  13.0845 H              1 RES1               0.0000
@<TRIPOS>BOND
    1    1    2 1     
    2    1    3 1     
    3    1    4 1     
    4    1    5 1     
    5    2    6 ar    
    6    2    7 ar    
    7    3    8 1     
    8    3    9 2     
    9    4   10 1     
   10    4   11 2     
   11    5   12 1     
   12    5   18 1     
   13    5   19 1     
   14    6   13 ar    
   15    6   20 1     
   16    7   14 ar    
   17    7   21 1     
   18    8   15 1     
   19    8   22 1     
   20   10   15 1     
   21   10   23 1     
   22   12   24 1     
   23   12   25 1     
   24   12   26 1     
   25   13   16 ar    
   26   13   27 1     
   27   14   16 ar    
   28   14   28 1     
   29   15   17 2     
   30   16   29 1     
@<TRIPOS>SUBSTRUCTURE
      1 RES1           1
@<TRIPOS>SET
DONOR_HYDROGENS      STATIC     ATOMS    <user>   **** ""
2 22 23
ATOM$RED        STATIC     ATOMS    COLORGROUP SYSTEM
2 22 23
@<TRIPOS>COMMENT
> <Gold.Version>
2022.3.0

> <Gold.Id.Protein>
unknown|4d1n_clean|pdb

> <Gold.Protein.RotatedTorsions>
[ 6581 6565 6566 6567 ] final  -50.14 input  113.40 | X-H torsion
[ 6673 6649 6650 6651 ] final  -72.59 input  128.31 | X-H torsion
[ 8033 8017 8018 8019 ] final  149.83 input   38.97 | X-H torsion
[ 8113 8095 8096 8097 ] final  153.35 input   94.22 | X-H torsion
[ 8173 8159 8160 8161 ] final  -62.94 input   69.09 | X-H torsion
[ 8253 8231 8232 8233 ] final  162.25 input   84.65 | X-H torsion
[ 9553 9532 9531 9529 ] final  159.43 input   60.02 | X-H torsion
[ 8321 8305 8306 8307 ] final  179.45 input   94.69 | X-H torsion
[ 10193 10177 10178 10179 ] final  -12.12 input   41.54 | X-H torsion
[ 7949 7931 7932 7933 ] final  157.75 input   80.35 | X-H torsion
[ 7894 7881 7882 7883 ] final   26.17 input   97.23 | X-H torsion
[ 7898 7886 7885 7882 ] final  122.11 input   59.98 | X-H torsion
[ 6813 6795 6796 6797 ] final  -45.18 input  114.70 | X-H torsion
[ 27193 6328 6327 6326 ] final  -96.20 input    0.00 | X-H torsion
[ 27196 6568 6567 6566 ] final   19.35 input   -0.00 | X-H torsion
[ 27199 7884 7883 7882 ] final  -75.72 input   -0.00 | X-H torsion
[ 27202 8020 8019 8018 ] final -120.50 input   -0.00 | X-H torsion
[ 27205 8098 8097 8096 ] final  130.01 input   -0.00 | X-H torsion
[ 27208 8162 8161 8160 ] final  -31.04 input    0.00 | X-H torsion
[ 27213 10092 10091 10090 ] final  161.53 input    0.00 | X-H torsion
[ 27217 10180 10179 10178 ] final  -95.24 input    0.00 | X-H torsion
[ 27220 7934 7933 7932 ] final  -54.52 input    0.00 | X-H torsion
[ 27222 7726 7725 7724 ] final  -76.32 input    0.00 | X-H torsion
[ 27224 7804 7803 7802 ] final   88.05 input    0.00 | X-H torsion

> <Gold.Protein.ActiveResidues>
 ASP403  THR404  LEU406  ILE407  TYR408  ALA410  LYS411  TRP414  GLN425  TRP426 
 SER427  LYS428  LEU429  GLN430  VAL431  PHE432  ASP433  TYR453  SER462  ALA463 
 ILE464 

> <Gold.Protein.RotatedAtoms>
  217.0528   47.1814   18.8341 H   0  0  0  0  0  0  0  0  0  0  0  0  # atno 6581 bound_to 6565
  219.7940   48.0822   19.4804 H   0  0  0  0  0  0  0  0  0  0  0  0  # atno 6673 bound_to 6649
  221.5220   43.2817   19.8908 H   0  0  0  0  0  0  0  0  0  0  0  0  # atno 6813 bound_to 6795
  229.9209   45.5688   18.7491 H   0  0  0  0  0  0  0  0  0  0  0  0  # atno 7894 bound_to 7881
  230.3798   49.4408   19.4708 H   0  0  0  0  0  0  0  0  0  0  0  0  # atno 7898 bound_to 7886
  229.9997   47.1938   17.3915 H   0  0  0  0  0  0  0  0  0  0  0  0  # atno 7949 bound_to 7931
  227.6056   46.1763   15.4950 H   0  0  0  0  0  0  0  0  0  0  0  0  # atno 8033 bound_to 8017
  225.8813   45.8706   11.7657 H   0  0  0  0  0  0  0  0  0  0  0  0  # atno 8113 bound_to 8095
  222.0365   46.4145   11.0316 H   0  0  0  0  0  0  0  0  0  0  0  0  # atno 8173 bound_to 8159
  219.7462   45.2886   10.1853 H   0  0  0  0  0  0  0  0  0  0  0  0  # atno 8253 bound_to 8231
  216.3714   46.6015   10.8791 H   0  0  0  0  0  0  0  0  0  0  0  0  # atno 8321 bound_to 8305
  226.5591   47.1904    8.4291 H   0  0  0  0  0  0  0  0  0  0  0  0  # atno 9553 bound_to 9532
  221.9843   42.5119   10.4823 H   0  0  0  0  0  0  0  0  0  0  0  0  # atno 10193 bound_to 10177
  215.6756   49.5976   18.2229 LP  0  0  0  0  0  0  0  0  0  0  0  0  # atno 27193 bound_to 6328
  216.3215   50.3840   16.8213 LP  0  0  0  0  0  0  0  0  0  0  0  0  # atno 27194 bound_to 6328
  216.8056   48.7471   18.0889 LP  0  0  0  0  0  0  0  0  0  0  0  0  # atno 27195 bound_to 6565
  220.8256   46.4816   18.3383 LP  0  0  0  0  0  0  0  0  0  0  0  0  # atno 27196 bound_to 6568
  220.7771   46.3881   20.0672 LP  0  0  0  0  0  0  0  0  0  0  0  0  # atno 27197 bound_to 6568
  218.4938   48.9178   20.2980 LP  0  0  0  0  0  0  0  0  0  0  0  0  # atno 27198 bound_to 6649
  226.7668   48.3092   17.1166 LP  0  0  0  0  0  0  0  0  0  0  0  0  # atno 27199 bound_to 7884
  228.1490   49.3515   17.0606 LP  0  0  0  0  0  0  0  0  0  0  0  0  # atno 27200 bound_to 7884
  227.3393   47.2223   14.1183 LP  0  0  0  0  0  0  0  0  0  0  0  0  # atno 27201 bound_to 8017
  223.4992   47.1224   13.9061 LP  0  0  0  0  0  0  0  0  0  0  0  0  # atno 27202 bound_to 8020
  224.9973   47.9343   14.2171 LP  0  0  0  0  0  0  0  0  0  0  0  0  # atno 27203 bound_to 8020
  224.6375   45.4091   12.8981 LP  0  0  0  0  0  0  0  0  0  0  0  0  # atno 27204 bound_to 8095
  222.0106   44.1429   12.0817 LP  0  0  0  0  0  0  0  0  0  0  0  0  # atno 27205 bound_to 8098
  222.7548   44.2478   10.5211 LP  0  0  0  0  0  0  0  0  0  0  0  0  # atno 27206 bound_to 8098
  221.9713   47.3643   12.4913 LP  0  0  0  0  0  0  0  0  0  0  0  0  # atno 27207 bound_to 8159
  218.8428   48.1777   11.8503 LP  0  0  0  0  0  0  0  0  0  0  0  0  # atno 27208 bound_to 8162
  218.5540   47.8647   10.1715 LP  0  0  0  0  0  0  0  0  0  0  0  0  # atno 27209 bound_to 8162
  218.5594   45.3162   11.4635 LP  0  0  0  0  0  0  0  0  0  0  0  0  # atno 27210 bound_to 8231
  226.2475   48.6032    7.6843 LP  0  0  0  0  0  0  0  0  0  0  0  0  # atno 27211 bound_to 9532
  227.6250   47.7901    7.3558 LP  0  0  0  0  0  0  0  0  0  0  0  0  # atno 27212 bound_to 9532
  225.5829   44.1827   10.0539 LP  0  0  0  0  0  0  0  0  0  0  0  0  # atno 27213 bound_to 10092
  227.1561   44.4657   10.7208 LP  0  0  0  0  0  0  0  0  0  0  0  0  # atno 27214 bound_to 10092
  215.6397   46.0783    9.3778 LP  0  0  0  0  0  0  0  0  0  0  0  0  # atno 27215 bound_to 8305
  222.9947   41.7635   11.6979 LP  0  0  0  0  0  0  0  0  0  0  0  0  # atno 27216 bound_to 10177
  219.1227   43.3746   11.4987 LP  0  0  0  0  0  0  0  0  0  0  0  0  # atno 27217 bound_to 10180
  220.0019   43.2357   10.0129 LP  0  0  0  0  0  0  0  0  0  0  0  0  # atno 27218 bound_to 10180
  228.4894   46.3329   17.1896 LP  0  0  0  0  0  0  0  0  0  0  0  0  # atno 27219 bound_to 7931
  229.6708   45.0726   13.5498 LP  0  0  0  0  0  0  0  0  0  0  0  0  # atno 27220 bound_to 7934
  228.5252   44.1530   14.4674 LP  0  0  0  0  0  0  0  0  0  0  0  0  # atno 27221 bound_to 7934
  230.6986   45.1917   16.8911 LP  0  0  0  0  0  0  0  0  0  0  0  0  # atno 27222 bound_to 7726
  229.8678   43.6963   16.6199 LP  0  0  0  0  0  0  0  0  0  0  0  0  # atno 27223 bound_to 7726
  226.6700   44.5267   19.4033 LP  0  0  0  0  0  0  0  0  0  0  0  0  # atno 27224 bound_to 7804
  227.2434   44.5227   17.7689 LP  0  0  0  0  0  0  0  0  0  0  0  0  # atno 27225 bound_to 7804
  228.9120   45.2673   20.1424 LP  0  0  0  0  0  0  0  0  0  0  0  0  # atno 27226 bound_to 7881
  230.5813   47.9039   18.9748 LP  0  0  0  0  0  0  0  0  0  0  0  0  # atno 27227 bound_to 7886
  230.8429   48.3016   20.5368 LP  0  0  0  0  0  0  0  0  0  0  0  0  # atno 27228 bound_to 7886

> <Gold.Score>
     Fitness  S(hb_ext) S(vdw_ext)  S(hb_int)    S(int)      intcor
     28.54       3.69      18.14       0.00      -0.09      -0.75

> <Gold.Goldscore.Fitness>
28.5410

> <Gold.Goldscore.Internal.Vdw>
-0.4478

> <Gold.Goldscore.Internal.Torsion>
-0.3972

> <Gold.Goldscore.External.Vdw>
18.1358

> <Gold.Goldscore.Internal.HBond>
0.0000

> <Gold.Goldscore.External.HBond>
3.6944

> <Gold.Goldscore.Internal.Correction>
-0.7548

> <Gold.Goldscore.Hbonds>
donor molecule, donor type, donor heavy atom, donor atom, acceptor molecule, acceptor atom, score
      P1  H  8095  8113       L1    17  0.79
      P1  H  9532  9553       L1    17  0.08
      L1  H     8    22       P1  7934  0.94
      L1  H    10    23       P1  9532  0.04

> <Gold.Goldscore.Internal.Vdw.Weighted>
-0.4478

> <Gold.Goldscore.Internal.Torsion.Weighted>
-0.3972

> <Gold.Goldscore.External.Vdw.Weighted>
24.9368

> <Gold.Goldscore.Internal.HBond.Weighted>
0.0000

> <Gold.Goldscore.External.HBond.Weighted>
3.6944

> <Gold.Goldscore.Internal.Correction.Weighted>
-0.7548

> <Gold.Rescore>
     Score     S(PLP)   S(hbond)     S(cho)   S(metal)  DE(clash)   DE(tors)     intcor
     32.11     -26.31       2.28       0.00       0.00       0.00       0.53       ----

> <Gold.PLP.Fitness>
32.1057

> <Gold.PLP.PLP>
-26.3146

> <Gold.PLP.part.hbond>
-3.5087

> <Gold.PLP.part.metal>
0.0000

> <Gold.PLP.part.buried>
-2.5623

> <Gold.PLP.part.nonpolar>
-24.3101

> <Gold.PLP.part.repulsive>
3.8048

> <Gold.PLP.ligand.clash>
0.0000

> <Gold.PLP.ligand.torsion>
0.5267

> <Gold.PLP.Chemscore.Hbond>
2.2815

> <Gold.PLP.Chemscore.CHOScore>
0.0000

> <Gold.PLP.Chemscore.Metal>
0.0000

> <Gold.Chemscore.Hbonds>
donor molecule, donor type, donor heavy atom, donor atom, acceptor molecule, acceptor atom, score
      L1  H     8    22       P1  7934  1.00
      P1  H  8095  8113       L1    17  0.73

> <Gold.PLP.Chemscore.Internal.Correction>
   9.000000E+99

#       Name:                CT1002167954
#       Creating user name   hitesit
#       Creation time:       Sun Apr 16 23:01:23 2023


#       File generated by GOLD software.
#

@<TRIPOS>MOLECULE
CT1002167954|ligand_prepared|mol2|1|dock9
    29    30     1
SMALL
NO_CHARGES


@<TRIPOS>ATOM
      1 C1         227.6457  50.6575  12.3120 C.3            1 RES1               0.0000
      2 C2         228.1775  49.6109  11.3116 C.ar           1 RES1               0.0000
      3 C3         226.1563  50.8121  12.0190 C.2            1 RES1               0.0000
      4 C4         227.9531  50.1130  13.7026 C.2            1 RES1               0.0000
      5 C5         228.3184  52.0439  12.1823 C.3            1 RES1               0.0000
      6 C6         227.6811  48.3108  11.3154 C.ar           1 RES1               0.0000
      7 C7         229.1605  49.9308  10.3789 C.ar           1 RES1               0.0000
      8 N8         225.2777  50.2595  12.9036 N.am           1 RES1               0.0000
      9 O9         225.7593  51.3760  11.0068 O.2            1 RES1               0.0000
     10 N10        226.8969  49.7761  14.5081 N.am           1 RES1               0.0000
     11 O11        229.1005  49.9571  14.1018 O.2            1 RES1               0.0000
     12 C12        227.8278  53.0611  13.2006 C.3            1 RES1               0.0000
     13 C13        228.1483  47.3655  10.4174 C.ar           1 RES1               0.0000
     14 C14        229.6266  48.9839   9.4819 C.ar           1 RES1               0.0000
     15 C15        225.5737  49.7958  14.1602 C.2            1 RES1               0.0000
     16 C16        229.1209  47.7014   9.4999 C.ar           1 RES1               0.0000
     17 O17        224.6846  49.4258  14.9216 O.2            1 RES1               0.0000
     18 H18        229.4024  51.9227  12.2984 H              1 RES1               0.0000
     19 H19        228.1307  52.4346  11.1745 H              1 RES1               0.0000
     20 H20        226.9172  48.0274  12.0317 H              1 RES1               0.0000
     21 H21        229.5737  50.9333  10.3472 H              1 RES1               0.0000
     22 H22        224.3111  50.1838  12.6030 H              1 RES1               0.0000
     23 H23        227.1175  49.4837  15.4547 H              1 RES1               0.0000
     24 H24        228.3315  54.0159  13.0655 H              1 RES1               0.0000
     25 H25        226.7572  53.2251  13.0970 H              1 RES1               0.0000
     26 H26        228.0213  52.7162  14.2142 H              1 RES1               0.0000
     27 H27        227.7481  46.3572  10.4365 H              1 RES1               0.0000
     28 H28        230.3926  49.2525   8.7620 H              1 RES1               0.0000
     29 H29        229.4865  46.9608   8.7963 H              1 RES1               0.0000
@<TRIPOS>BOND
    1    1    2 1     
    2    1    3 1     
    3    1    4 1     
    4    1    5 1     
    5    2    6 ar    
    6    2    7 ar    
    7    3    8 1     
    8    3    9 2     
    9    4   10 1     
   10    4   11 2     
   11    5   12 1     
   12    5   18 1     
   13    5   19 1     
   14    6   13 ar    
   15    6   20 1     
   16    7   14 ar    
   17    7   21 1     
   18    8   15 1     
   19    8   22 1     
   20   10   15 1     
   21   10   23 1     
   22   12   24 1     
   23   12   25 1     
   24   12   26 1     
   25   13   16 ar    
   26   13   27 1     
   27   14   16 ar    
   28   14   28 1     
   29   15   17 2     
   30   16   29 1     
@<TRIPOS>SUBSTRUCTURE
      1 RES1           1
@<TRIPOS>SET
DONOR_HYDROGENS      STATIC     ATOMS    <user>   **** ""
2 22 23
ATOM$RED        STATIC     ATOMS    COLORGROUP SYSTEM
2 22 23
@<TRIPOS>COMMENT
> <Gold.Version>
2022.3.0

> <Gold.Id.Protein>
unknown|4d1n_clean|pdb

> <Gold.Protein.RotatedTorsions>
[ 6581 6565 6566 6567 ] final   94.61 input  113.40 | X-H torsion
[ 6673 6649 6650 6651 ] final -101.64 input  128.31 | X-H torsion
[ 8033 8017 8018 8019 ] final -113.10 input   38.97 | X-H torsion
[ 8113 8095 8096 8097 ] final -103.24 input   94.22 | X-H torsion
[ 8173 8159 8160 8161 ] final  111.32 input   69.09 | X-H torsion
[ 8253 8231 8232 8233 ] final  -42.99 input   84.65 | X-H torsion
[ 9553 9532 9531 9529 ] final  148.29 input   60.02 | X-H torsion
[ 8321 8305 8306 8307 ] final -150.70 input   94.69 | X-H torsion
[ 10193 10177 10178 10179 ] final  130.29 input   41.54 | X-H torsion
[ 7949 7931 7932 7933 ] final   60.81 input   80.35 | X-H torsion
[ 7894 7881 7882 7883 ] final   53.78 input   97.23 | X-H torsion
[ 7898 7886 7885 7882 ] final  109.69 input   59.98 | X-H torsion
[ 6813 6795 6796 6797 ] final  -45.69 input  114.70 | X-H torsion
[ 27193 6328 6327 6326 ] final -131.72 input    0.00 | X-H torsion
[ 27196 6568 6567 6566 ] final   79.18 input   -0.00 | X-H torsion
[ 27199 7884 7883 7882 ] final   21.00 input   -0.00 | X-H torsion
[ 27202 8020 8019 8018 ] final -178.90 input   -0.00 | X-H torsion
[ 27205 8098 8097 8096 ] final   56.21 input   -0.00 | X-H torsion
[ 27208 8162 8161 8160 ] final  100.27 input    0.00 | X-H torsion
[ 27213 10092 10091 10090 ] final  126.53 input    0.00 | X-H torsion
[ 27217 10180 10179 10178 ] final  153.97 input    0.00 | X-H torsion
[ 27220 7934 7933 7932 ] final -128.83 input    0.00 | X-H torsion
[ 27222 7726 7725 7724 ] final   11.74 input    0.00 | X-H torsion
[ 27224 7804 7803 7802 ] final  107.75 input    0.00 | X-H torsion

> <Gold.Protein.ActiveResidues>
 ASP403  THR404  LEU406  ILE407  TYR408  ALA410  LYS411  TRP414  GLN425  TRP426 
 SER427  LYS428  LEU429  GLN430  VAL431  PHE432  ASP433  TYR453  SER462  ALA463 
 ILE464 

> <Gold.Protein.RotatedAtoms>
  216.9554   48.8605   18.5864 H   0  0  0  0  0  0  0  0  0  0  0  0  # atno 6581 bound_to 6565
  219.9363   48.5014   19.5164 H   0  0  0  0  0  0  0  0  0  0  0  0  # atno 6673 bound_to 6649
  221.5237   43.2795   19.8834 H   0  0  0  0  0  0  0  0  0  0  0  0  # atno 6813 bound_to 6795
  230.1282   45.7542   19.0653 H   0  0  0  0  0  0  0  0  0  0  0  0  # atno 7894 bound_to 7881
  230.3526   49.3709   19.2825 H   0  0  0  0  0  0  0  0  0  0  0  0  # atno 7898 bound_to 7886
  229.5856   45.9557   17.1340 H   0  0  0  0  0  0  0  0  0  0  0  0  # atno 7949 bound_to 7931
  228.0823   46.3455   14.2654 H   0  0  0  0  0  0  0  0  0  0  0  0  # atno 8033 bound_to 8017
  225.2527   46.2977   12.9155 H   0  0  0  0  0  0  0  0  0  0  0  0  # atno 8113 bound_to 8095
  221.9453   47.4364   12.4448 H   0  0  0  0  0  0  0  0  0  0  0  0  # atno 8173 bound_to 8159
  218.6619   45.6834   11.4521 H   0  0  0  0  0  0  0  0  0  0  0  0  # atno 8253 bound_to 8231
  216.4182   46.1458   10.8776 H   0  0  0  0  0  0  0  0  0  0  0  0  # atno 8321 bound_to 8305
  226.4112   47.2931    8.4541 H   0  0  0  0  0  0  0  0  0  0  0  0  # atno 9553 bound_to 9532
  222.7514   42.2088   11.9439 H   0  0  0  0  0  0  0  0  0  0  0  0  # atno 10193 bound_to 10177
  216.0623   49.9201   18.3829 LP  0  0  0  0  0  0  0  0  0  0  0  0  # atno 27193 bound_to 6328
  215.9349   50.0614   16.6613 LP  0  0  0  0  0  0  0  0  0  0  0  0  # atno 27194 bound_to 6328
  216.8995   47.1292   18.3276 LP  0  0  0  0  0  0  0  0  0  0  0  0  # atno 27195 bound_to 6565
  221.3616   46.9666   18.8112 LP  0  0  0  0  0  0  0  0  0  0  0  0  # atno 27196 bound_to 6568
  220.2410   45.9031   19.5943 LP  0  0  0  0  0  0  0  0  0  0  0  0  # atno 27197 bound_to 6568
  218.3551   48.5093   20.2629 LP  0  0  0  0  0  0  0  0  0  0  0  0  # atno 27198 bound_to 6649
  227.3988   49.1209   17.9023 LP  0  0  0  0  0  0  0  0  0  0  0  0  # atno 27199 bound_to 7884
  227.5169   48.5399   16.2749 LP  0  0  0  0  0  0  0  0  0  0  0  0  # atno 27200 bound_to 7884
  226.8762   47.0579   15.3131 LP  0  0  0  0  0  0  0  0  0  0  0  0  # atno 27201 bound_to 8017
  223.8064   47.6566   13.3279 LP  0  0  0  0  0  0  0  0  0  0  0  0  # atno 27202 bound_to 8020
  224.6901   47.4001   14.7953 LP  0  0  0  0  0  0  0  0  0  0  0  0  # atno 27203 bound_to 8020
  225.2577   44.9877   11.7638 LP  0  0  0  0  0  0  0  0  0  0  0  0  # atno 27204 bound_to 8095
  223.0245   44.0589   11.8666 LP  0  0  0  0  0  0  0  0  0  0  0  0  # atno 27205 bound_to 8098
  221.7408   44.3317   10.7362 LP  0  0  0  0  0  0  0  0  0  0  0  0  # atno 27206 bound_to 8098
  222.0619   46.3494   11.0876 LP  0  0  0  0  0  0  0  0  0  0  0  0  # atno 27207 bound_to 8159
  219.2117   48.1009   10.3179 LP  0  0  0  0  0  0  0  0  0  0  0  0  # atno 27208 bound_to 8162
  218.1851   47.9416   11.7039 LP  0  0  0  0  0  0  0  0  0  0  0  0  # atno 27209 bound_to 8162
  219.6295   44.9267   10.2135 LP  0  0  0  0  0  0  0  0  0  0  0  0  # atno 27210 bound_to 8231
  226.3770   48.6565    7.5666 LP  0  0  0  0  0  0  0  0  0  0  0  0  # atno 27211 bound_to 9532
  227.6443   47.6335    7.4484 LP  0  0  0  0  0  0  0  0  0  0  0  0  # atno 27212 bound_to 9532
  225.9204   44.1990    9.6576 LP  0  0  0  0  0  0  0  0  0  0  0  0  # atno 27213 bound_to 10092
  226.8186   44.4494   11.1172 LP  0  0  0  0  0  0  0  0  0  0  0  0  # atno 27214 bound_to 10092
  215.5945   46.5194    9.3792 LP  0  0  0  0  0  0  0  0  0  0  0  0  # atno 27215 bound_to 8305
  222.2482   42.0584   10.2756 LP  0  0  0  0  0  0  0  0  0  0  0  0  # atno 27216 bound_to 10177
  219.0250   43.1533   10.0938 LP  0  0  0  0  0  0  0  0  0  0  0  0  # atno 27217 bound_to 10180
  220.0995   43.4571   11.4178 LP  0  0  0  0  0  0  0  0  0  0  0  0  # atno 27218 bound_to 10180
  228.8907   47.5326   17.4391 LP  0  0  0  0  0  0  0  0  0  0  0  0  # atno 27219 bound_to 7931
  228.7157   44.7708   13.2478 LP  0  0  0  0  0  0  0  0  0  0  0  0  # atno 27220 bound_to 7934
  229.4803   44.4547   14.7694 LP  0  0  0  0  0  0  0  0  0  0  0  0  # atno 27221 bound_to 7934
  230.8750   44.2588   16.1510 LP  0  0  0  0  0  0  0  0  0  0  0  0  # atno 27222 bound_to 7726
  229.6914   44.6293   17.3601 LP  0  0  0  0  0  0  0  0  0  0  0  0  # atno 27223 bound_to 7726
  226.6648   44.8175   19.3470 LP  0  0  0  0  0  0  0  0  0  0  0  0  # atno 27224 bound_to 7804
  227.2486   44.2319   17.8252 LP  0  0  0  0  0  0  0  0  0  0  0  0  # atno 27225 bound_to 7804
  228.7089   45.0857   19.8327 LP  0  0  0  0  0  0  0  0  0  0  0  0  # atno 27226 bound_to 7881
  230.6392   47.7767   19.1234 LP  0  0  0  0  0  0  0  0  0  0  0  0  # atno 27227 bound_to 7886
  230.8124   48.4991   20.5777 LP  0  0  0  0  0  0  0  0  0  0  0  0  # atno 27228 bound_to 7886

> <Gold.Score>
     Fitness  S(hb_ext) S(vdw_ext)  S(hb_int)    S(int)      intcor
     26.94       1.95      18.23       0.00      -0.07      -0.75

> <Gold.Goldscore.Fitness>
26.9410

> <Gold.Goldscore.Internal.Vdw>
-0.4566

> <Gold.Goldscore.Internal.Torsion>
-0.3728

> <Gold.Goldscore.External.Vdw>
18.2280

> <Gold.Goldscore.Internal.HBond>
0.0000

> <Gold.Goldscore.External.HBond>
1.9522

> <Gold.Goldscore.Internal.Correction>
-0.7548

> <Gold.Goldscore.Hbonds>
donor molecule, donor type, donor heavy atom, donor atom, acceptor molecule, acceptor atom, score
      P1  H  6803  6824       L1    17  0.01
      P1  H  8102  8119       L1     9  0.01
      L1  H    10    23       P1  7884  0.93

> <Gold.Goldscore.Internal.Vdw.Weighted>
-0.4566

> <Gold.Goldscore.Internal.Torsion.Weighted>
-0.3728

> <Gold.Goldscore.External.Vdw.Weighted>
25.0636

> <Gold.Goldscore.Internal.HBond.Weighted>
0.0000

> <Gold.Goldscore.External.HBond.Weighted>
1.9522

> <Gold.Goldscore.Internal.Correction.Weighted>
-0.7548

> <Gold.Rescore>
     Score     S(PLP)   S(hbond)     S(cho)   S(metal)  DE(clash)   DE(tors)     intcor
     29.27     -24.41       1.72       0.00       0.00       0.00       0.15       ----

> <Gold.PLP.Fitness>
29.2677

> <Gold.PLP.PLP>
-24.4094

> <Gold.PLP.part.hbond>
-2.0000

> <Gold.PLP.part.metal>
0.0000

> <Gold.PLP.part.buried>
-4.7775

> <Gold.PLP.part.nonpolar>
-18.1697

> <Gold.PLP.part.repulsive>
0.3739

> <Gold.PLP.ligand.clash>
0.0000

> <Gold.PLP.ligand.torsion>
0.1508

> <Gold.PLP.Chemscore.Hbond>
1.7200

> <Gold.PLP.Chemscore.CHOScore>
0.0000

> <Gold.PLP.Chemscore.Metal>
0.0000

> <Gold.Chemscore.Hbonds>
donor molecule, donor type, donor heavy atom, donor atom, acceptor molecule, acceptor atom, score
      L1  H    10    23       P1  7884  0.86
      P1  H  6803  6824       L1    17  0.38
      P1  H  8102  8119       L1     9  0.80

> <Gold.PLP.Chemscore.Internal.Correction>
   9.000000E+99

#       Name:                CT1002167954
#       Creating user name   hitesit
#       Creation time:       Sun Apr 16 23:01:20 2023


#       File generated by GOLD software.
#

@<TRIPOS>MOLECULE
CT1002167954|ligand_prepared|mol2|1|dock4
    29    30     1
SMALL
NO_CHARGES


@<TRIPOS>ATOM
      1 C1         225.5392  51.5242  13.1713 C.3            1 RES1               0.0000
      2 C2         224.0453  51.1409  13.1810 C.ar           1 RES1               0.0000
      3 C3         226.1416  50.9321  14.4421 C.2            1 RES1               0.0000
      4 C4         226.1183  50.9511  11.8826 C.2            1 RES1               0.0000
      5 C5         225.7928  53.0497  13.1721 C.3            1 RES1               0.0000
      6 C6         223.6546  49.8167  13.3562 C.ar           1 RES1               0.0000
      7 C7         223.0480  52.0990  13.0189 C.ar           1 RES1               0.0000
      8 N8         226.9403  49.8346  14.3107 N.am           1 RES1               0.0000
      9 O9         225.8879  51.3973  15.5464 O.2            1 RES1               0.0000
     10 N10        227.0539  49.9552  11.9864 N.am           1 RES1               0.0000
     11 O11        225.7608  51.3413  10.7780 O.2            1 RES1               0.0000
     12 C12        227.2588  53.4275  13.3147 C.3            1 RES1               0.0000
     13 C13        222.3155  49.4635  13.3717 C.ar           1 RES1               0.0000
     14 C14        221.7094  51.7435  13.0345 C.ar           1 RES1               0.0000
     15 C15        227.4685  49.3497  13.1412 C.2            1 RES1               0.0000
     16 C16        221.3421  50.4265  13.2114 C.ar           1 RES1               0.0000
     17 O17        228.2735  48.4228  13.1493 O.2            1 RES1               0.0000
     18 H18        225.4089  53.4720  12.2352 H              1 RES1               0.0000
     19 H19        225.2300  53.5009  13.9986 H              1 RES1               0.0000
     20 H20        224.4065  49.0448  13.4814 H              1 RES1               0.0000
     21 H21        223.3137  53.1411  12.8772 H              1 RES1               0.0000
     22 H22        227.1657  49.3273  15.1605 H              1 RES1               0.0000
     23 H23        227.4808  49.6357  11.1226 H              1 RES1               0.0000
     24 H24        227.3808  54.5086  13.3094 H              1 RES1               0.0000
     25 H25        227.6667  53.0450  14.2481 H              1 RES1               0.0000
     26 H26        227.8445  53.0163  12.4951 H              1 RES1               0.0000
     27 H27        222.0316  48.4254  13.5099 H              1 RES1               0.0000
     28 H28        220.9467  52.5046  12.9074 H              1 RES1               0.0000
     29 H29        220.2931  50.1495  13.2240 H              1 RES1               0.0000
@<TRIPOS>BOND
    1    1    2 1     
    2    1    3 1     
    3    1    4 1     
    4    1    5 1     
    5    2    6 ar    
    6    2    7 ar    
    7    3    8 1     
    8    3    9 2     
    9    4   10 1     
   10    4   11 2     
   11    5   12 1     
   12    5   18 1     
   13    5   19 1     
   14    6   13 ar    
   15    6   20 1     
   16    7   14 ar    
   17    7   21 1     
   18    8   15 1     
   19    8   22 1     
   20   10   15 1     
   21   10   23 1     
   22   12   24 1     
   23   12   25 1     
   24   12   26 1     
   25   13   16 ar    
   26   13   27 1     
   27   14   16 ar    
   28   14   28 1     
   29   15   17 2     
   30   16   29 1     
@<TRIPOS>SUBSTRUCTURE
      1 RES1           1
@<TRIPOS>SET
DONOR_HYDROGENS      STATIC     ATOMS    <user>   **** ""
2 22 23
ATOM$RED        STATIC     ATOMS    COLORGROUP SYSTEM
2 22 23
@<TRIPOS>COMMENT
> <Gold.Version>
2022.3.0

> <Gold.Id.Protein>
unknown|4d1n_clean|pdb

> <Gold.Protein.RotatedTorsions>
[ 6581 6565 6566 6567 ] final  128.20 input  113.40 | X-H torsion
[ 6673 6649 6650 6651 ] final  171.62 input  128.31 | X-H torsion
[ 8033 8017 8018 8019 ] final  -83.39 input   38.97 | X-H torsion
[ 8113 8095 8096 8097 ] final  166.38 input   94.22 | X-H torsion
[ 8173 8159 8160 8161 ] final   -5.31 input   69.09 | X-H torsion
[ 8253 8231 8232 8233 ] final   47.13 input   84.65 | X-H torsion
[ 9553 9532 9531 9529 ] final  -11.58 input   60.02 | X-H torsion
[ 8321 8305 8306 8307 ] final -155.47 input   94.69 | X-H torsion
[ 10193 10177 10178 10179 ] final  116.33 input   41.54 | X-H torsion
[ 7949 7931 7932 7933 ] final  102.30 input   80.35 | X-H torsion
[ 7894 7881 7882 7883 ] final   49.96 input   97.23 | X-H torsion
[ 7898 7886 7885 7882 ] final -142.19 input   59.98 | X-H torsion
[ 6813 6795 6796 6797 ] final  103.11 input  114.70 | X-H torsion
[ 27193 6328 6327 6326 ] final  104.32 input    0.00 | X-H torsion
[ 27196 6568 6567 6566 ] final   81.24 input   -0.00 | X-H torsion
[ 27199 7884 7883 7882 ] final -148.37 input   -0.00 | X-H torsion
[ 27202 8020 8019 8018 ] final   39.67 input   -0.00 | X-H torsion
[ 27205 8098 8097 8096 ] final   -6.11 input   -0.00 | X-H torsion
[ 27208 8162 8161 8160 ] final  -77.18 input    0.00 | X-H torsion
[ 27213 10092 10091 10090 ] final -136.13 input    0.00 | X-H torsion
[ 27217 10180 10179 10178 ] final   59.55 input    0.00 | X-H torsion
[ 27220 7934 7933 7932 ] final   64.82 input    0.00 | X-H torsion
[ 27222 7726 7725 7724 ] final -158.62 input    0.00 | X-H torsion
[ 27224 7804 7803 7802 ] final -169.21 input    0.00 | X-H torsion

> <Gold.Protein.ActiveResidues>
 ASP403  THR404  LEU406  ILE407  TYR408  ALA410  LYS411  TRP414  GLN425  TRP426 
 SER427  LYS428  LEU429  GLN430  VAL431  PHE432  ASP433  TYR453  SER462  ALA463 
 ILE464 

> <Gold.Protein.RotatedAtoms>
  216.8333   48.7879   18.0910 H   0  0  0  0  0  0  0  0  0  0  0  0  # atno 6581 bound_to 6565
  219.2686   49.3670   20.0490 H   0  0  0  0  0  0  0  0  0  0  0  0  # atno 6673 bound_to 6649
  221.4069   44.9689   19.8574 H   0  0  0  0  0  0  0  0  0  0  0  0  # atno 6813 bound_to 6795
  230.1086   45.7323   19.0143 H   0  0  0  0  0  0  0  0  0  0  0  0  # atno 7894 bound_to 7881
  230.7703   48.6889   20.5710 H   0  0  0  0  0  0  0  0  0  0  0  0  # atno 7898 bound_to 7886
  230.0372   46.3830   17.2332 H   0  0  0  0  0  0  0  0  0  0  0  0  # atno 7949 bound_to 7931
  227.8937   46.6771   14.0176 H   0  0  0  0  0  0  0  0  0  0  0  0  # atno 8033 bound_to 8017
  225.8975   46.0305   11.8835 H   0  0  0  0  0  0  0  0  0  0  0  0  # atno 8113 bound_to 8095
  221.6612   47.1688   11.0090 H   0  0  0  0  0  0  0  0  0  0  0  0  # atno 8173 bound_to 8159
  218.8012   44.5221   11.0312 H   0  0  0  0  0  0  0  0  0  0  0  0  # atno 8253 bound_to 8231
  216.4183   46.2184   10.8920 H   0  0  0  0  0  0  0  0  0  0  0  0  # atno 8321 bound_to 8305
  226.9327   48.5919    7.2544 H   0  0  0  0  0  0  0  0  0  0  0  0  # atno 9553 bound_to 9532
  222.6241   42.3826   11.9391 H   0  0  0  0  0  0  0  0  0  0  0  0  # atno 10193 bound_to 10177
  216.4980   50.5095   17.0410 LP  0  0  0  0  0  0  0  0  0  0  0  0  # atno 27193 bound_to 6328
  215.4991   49.4721   18.0032 LP  0  0  0  0  0  0  0  0  0  0  0  0  # atno 27194 bound_to 6328
  217.0171   47.1991   18.8049 LP  0  0  0  0  0  0  0  0  0  0  0  0  # atno 27195 bound_to 6565
  221.3719   46.9754   18.8391 LP  0  0  0  0  0  0  0  0  0  0  0  0  # atno 27196 bound_to 6568
  220.2307   45.8943   19.5664 LP  0  0  0  0  0  0  0  0  0  0  0  0  # atno 27197 bound_to 6568
  219.0058   47.6655   19.7438 LP  0  0  0  0  0  0  0  0  0  0  0  0  # atno 27198 bound_to 6649
  227.3862   48.4544   16.3117 LP  0  0  0  0  0  0  0  0  0  0  0  0  # atno 27199 bound_to 7884
  227.5295   49.2064   17.8654 LP  0  0  0  0  0  0  0  0  0  0  0  0  # atno 27200 bound_to 7884
  227.0594   46.7356   15.5539 LP  0  0  0  0  0  0  0  0  0  0  0  0  # atno 27201 bound_to 8017
  224.9726   47.7745   14.4676 LP  0  0  0  0  0  0  0  0  0  0  0  0  # atno 27202 bound_to 8020
  223.5240   47.2823   13.6556 LP  0  0  0  0  0  0  0  0  0  0  0  0  # atno 27203 bound_to 8020
  224.6215   45.2513   12.7819 LP  0  0  0  0  0  0  0  0  0  0  0  0  # atno 27204 bound_to 8095
  223.1892   44.1452   10.9898 LP  0  0  0  0  0  0  0  0  0  0  0  0  # atno 27205 bound_to 8098
  221.5762   44.2454   11.6130 LP  0  0  0  0  0  0  0  0  0  0  0  0  # atno 27206 bound_to 8098
  222.3441   46.6152   12.5137 LP  0  0  0  0  0  0  0  0  0  0  0  0  # atno 27207 bound_to 8159
  218.2143   47.9541   11.7258 LP  0  0  0  0  0  0  0  0  0  0  0  0  # atno 27208 bound_to 8162
  219.1826   48.0884   10.2960 LP  0  0  0  0  0  0  0  0  0  0  0  0  # atno 27209 bound_to 8162
  219.4920   46.0726   10.6288 LP  0  0  0  0  0  0  0  0  0  0  0  0  # atno 27210 bound_to 8231
  227.4625   47.1805    7.8668 LP  0  0  0  0  0  0  0  0  0  0  0  0  # atno 27211 bound_to 9532
  226.0337   47.8014    8.3565 LP  0  0  0  0  0  0  0  0  0  0  0  0  # atno 27212 bound_to 9532
  225.7028   44.2729   10.9377 LP  0  0  0  0  0  0  0  0  0  0  0  0  # atno 27213 bound_to 10092
  227.0362   44.3755    9.8370 LP  0  0  0  0  0  0  0  0  0  0  0  0  # atno 27214 bound_to 10092
  215.5943   46.4491    9.3653 LP  0  0  0  0  0  0  0  0  0  0  0  0  # atno 27215 bound_to 8305
  222.3721   41.8893   10.2802 LP  0  0  0  0  0  0  0  0  0  0  0  0  # atno 27216 bound_to 10177
  220.2759   43.3003   10.2651 LP  0  0  0  0  0  0  0  0  0  0  0  0  # atno 27217 bound_to 10180
  218.8487   43.3100   11.2464 LP  0  0  0  0  0  0  0  0  0  0  0  0  # atno 27218 bound_to 10180
  228.4530   47.1185   17.3430 LP  0  0  0  0  0  0  0  0  0  0  0  0  # atno 27219 bound_to 7931
  229.3038   44.3569   14.8100 LP  0  0  0  0  0  0  0  0  0  0  0  0  # atno 27220 bound_to 7934
  228.8923   44.8686   13.2072 LP  0  0  0  0  0  0  0  0  0  0  0  0  # atno 27221 bound_to 7934
  229.7660   44.7530   17.3777 LP  0  0  0  0  0  0  0  0  0  0  0  0  # atno 27222 bound_to 7726
  230.8004   44.1351   16.1334 LP  0  0  0  0  0  0  0  0  0  0  0  0  # atno 27223 bound_to 7726
  226.9563   45.3662   18.3814 LP  0  0  0  0  0  0  0  0  0  0  0  0  # atno 27224 bound_to 7804
  226.9571   43.6832   18.7907 LP  0  0  0  0  0  0  0  0  0  0  0  0  # atno 27225 bound_to 7804
  228.7282   45.1071   19.8826 LP  0  0  0  0  0  0  0  0  0  0  0  0  # atno 27226 bound_to 7881
  230.3382   49.2734   19.1149 LP  0  0  0  0  0  0  0  0  0  0  0  0  # atno 27227 bound_to 7886
  230.6929   47.6890   19.2892 LP  0  0  0  0  0  0  0  0  0  0  0  0  # atno 27228 bound_to 7886

> <Gold.Score>
     Fitness  S(hb_ext) S(vdw_ext)  S(hb_int)    S(int)      intcor
     26.19       2.32      17.42       0.00      -0.09      -0.75

> <Gold.Goldscore.Fitness>
26.1916

> <Gold.Goldscore.Internal.Vdw>
-0.4098

> <Gold.Goldscore.Internal.Torsion>
-0.4324

> <Gold.Goldscore.External.Vdw>
17.4248

> <Gold.Goldscore.Internal.HBond>
0.0000

> <Gold.Goldscore.External.HBond>
2.3200

> <Gold.Goldscore.Internal.Correction>
-0.7548

> <Gold.Goldscore.Hbonds>
donor molecule, donor type, donor heavy atom, donor atom, acceptor molecule, acceptor atom, score
      P1  H  6803  6824       L1     9  0.04
      P1  H  8017  8033       L1    17  0.02
      P1  H  8102  8119       L1    11  0.13
      L1  H     8    22       P1  7884  0.91

> <Gold.Goldscore.Internal.Vdw.Weighted>
-0.4098

> <Gold.Goldscore.Internal.Torsion.Weighted>
-0.4324

> <Gold.Goldscore.External.Vdw.Weighted>
23.9591

> <Gold.Goldscore.Internal.HBond.Weighted>
0.0000

> <Gold.Goldscore.External.HBond.Weighted>
2.3200

> <Gold.Goldscore.Internal.Correction.Weighted>
-0.7548

> <Gold.Rescore>
     Score     S(PLP)   S(hbond)     S(cho)   S(metal)  DE(clash)   DE(tors)     intcor
     25.27     -18.98       2.11       0.00       0.00       0.00       0.01       ----

> <Gold.PLP.Fitness>
25.2699

> <Gold.PLP.PLP>
-18.9757

> <Gold.PLP.part.hbond>
-3.1288

> <Gold.PLP.part.metal>
0.0000

> <Gold.PLP.part.buried>
-0.9388

> <Gold.PLP.part.nonpolar>
-16.3496

> <Gold.PLP.part.repulsive>
0.9842

> <Gold.PLP.ligand.clash>
0.0000

> <Gold.PLP.ligand.torsion>
0.0126

> <Gold.PLP.Chemscore.Hbond>
2.1065

> <Gold.PLP.Chemscore.CHOScore>
0.0000

> <Gold.PLP.Chemscore.Metal>
0.0000

> <Gold.Chemscore.Hbonds>
donor molecule, donor type, donor heavy atom, donor atom, acceptor molecule, acceptor atom, score
      L1  H     8    22       P1  7884  0.42
      P1  H  6803  6824       L1     9  0.46
      P1  H  8017  8033       L1    17  0.62
      P1  H  8102  8119       L1    11  0.82

> <Gold.PLP.Chemscore.Internal.Correction>
   9.000000E+99

#       Name:                CT1002167954
#       Creating user name   hitesit
#       Creation time:       Sun Apr 16 23:01:23 2023


#       File generated by GOLD software.
#

@<TRIPOS>MOLECULE
CT1002167954|ligand_prepared|mol2|1|dock10
    29    30     1
SMALL
NO_CHARGES


@<TRIPOS>ATOM
      1 C1         226.6904  51.6458  13.7182 C.3            1 RES1               0.0000
      2 C2         227.4746  51.8963  15.0224 C.ar           1 RES1               0.0000
      3 C3         227.7306  51.3384  12.6450 C.2            1 RES1               0.0000
      4 C4         225.7367  50.4923  14.0087 C.2            1 RES1               0.0000
      5 C5         225.8481  52.8566  13.2532 C.3            1 RES1               0.0000
      6 C6         228.0085  50.8326  15.7437 C.ar           1 RES1               0.0000
      7 C7         227.6744  53.1834  15.5145 C.ar           1 RES1               0.0000
      8 N8         227.8471  50.0444  12.2303 N.am           1 RES1               0.0000
      9 O9         228.4647  52.2111  12.1981 O.2            1 RES1               0.0000
     10 N10        225.9328  49.3128  13.3392 N.am           1 RES1               0.0000
     11 O11        224.8273  50.5887  14.8236 O.2            1 RES1               0.0000
     12 C12        224.9256  52.5490  12.0842 C.3            1 RES1               0.0000
     13 C13        228.7188  51.0478  16.9130 C.ar           1 RES1               0.0000
     14 C14        228.3849  53.3964  16.6843 C.ar           1 RES1               0.0000
     15 C15        226.9635  49.0269  12.4859 C.2            1 RES1               0.0000
     16 C16        228.9079  52.3297  17.3838 C.ar           1 RES1               0.0000
     17 O17        227.1031  47.9244  11.9641 O.2            1 RES1               0.0000
     18 H18        225.2429  53.2106  14.0969 H              1 RES1               0.0000
     19 H19        226.5266  53.6683  12.9634 H              1 RES1               0.0000
     20 H20        227.8678  49.8167  15.3899 H              1 RES1               0.0000
     21 H21        227.2711  54.0376  14.9814 H              1 RES1               0.0000
     22 H22        228.6671  49.8119  11.6791 H              1 RES1               0.0000
     23 H23        225.2468  48.5802  13.4909 H              1 RES1               0.0000
     24 H24        224.3580  53.4320  11.7981 H              1 RES1               0.0000
     25 H25        225.4963  52.2180  11.2191 H              1 RES1               0.0000
     26 H26        224.2203  51.7629  12.3459 H              1 RES1               0.0000
     27 H27        229.1272  50.2049  17.4606 H              1 RES1               0.0000
     28 H28        228.5307  54.4069  17.0515 H              1 RES1               0.0000
     29 H29        229.4648  52.4981  18.2997 H              1 RES1               0.0000
@<TRIPOS>BOND
    1    1    2 1     
    2    1    3 1     
    3    1    4 1     
    4    1    5 1     
    5    2    6 ar    
    6    2    7 ar    
    7    3    8 1     
    8    3    9 2     
    9    4   10 1     
   10    4   11 2     
   11    5   12 1     
   12    5   18 1     
   13    5   19 1     
   14    6   13 ar    
   15    6   20 1     
   16    7   14 ar    
   17    7   21 1     
   18    8   15 1     
   19    8   22 1     
   20   10   15 1     
   21   10   23 1     
   22   12   24 1     
   23   12   25 1     
   24   12   26 1     
   25   13   16 ar    
   26   13   27 1     
   27   14   16 ar    
   28   14   28 1     
   29   15   17 2     
   30   16   29 1     
@<TRIPOS>SUBSTRUCTURE
      1 RES1           1
@<TRIPOS>SET
DONOR_HYDROGENS      STATIC     ATOMS    <user>   **** ""
2 22 23
ATOM$RED        STATIC     ATOMS    COLORGROUP SYSTEM
2 22 23
@<TRIPOS>COMMENT
> <Gold.Version>
2022.3.0

> <Gold.Id.Protein>
unknown|4d1n_clean|pdb

> <Gold.Protein.RotatedTorsions>
[ 6581 6565 6566 6567 ] final  142.38 input  113.40 | X-H torsion
[ 6673 6649 6650 6651 ] final   92.64 input  128.31 | X-H torsion
[ 8033 8017 8018 8019 ] final  -11.77 input   38.97 | X-H torsion
[ 8113 8095 8096 8097 ] final -170.66 input   94.22 | X-H torsion
[ 8173 8159 8160 8161 ] final  162.41 input   69.09 | X-H torsion
[ 8253 8231 8232 8233 ] final  158.67 input   84.65 | X-H torsion
[ 9553 9532 9531 9529 ] final -148.66 input   60.02 | X-H torsion
[ 8321 8305 8306 8307 ] final  124.28 input   94.69 | X-H torsion
[ 10193 10177 10178 10179 ] final   -4.89 input   41.54 | X-H torsion
[ 7949 7931 7932 7933 ] final -171.13 input   80.35 | X-H torsion
[ 7894 7881 7882 7883 ] final   86.36 input   97.23 | X-H torsion
[ 7898 7886 7885 7882 ] final  -77.65 input   59.98 | X-H torsion
[ 6813 6795 6796 6797 ] final -145.35 input  114.70 | X-H torsion
[ 27193 6328 6327 6326 ] final   82.89 input    0.00 | X-H torsion
[ 27196 6568 6567 6566 ] final  -26.10 input   -0.00 | X-H torsion
[ 27199 7884 7883 7882 ] final   87.58 input   -0.00 | X-H torsion
[ 27202 8020 8019 8018 ] final -104.48 input   -0.00 | X-H torsion
[ 27205 8098 8097 8096 ] final   94.41 input   -0.00 | X-H torsion
[ 27208 8162 8161 8160 ] final -153.56 input    0.00 | X-H torsion
[ 27213 10092 10091 10090 ] final -172.94 input    0.00 | X-H torsion
[ 27217 10180 10179 10178 ] final  107.44 input    0.00 | X-H torsion
[ 27220 7934 7933 7932 ] final   87.76 input    0.00 | X-H torsion
[ 27222 7726 7725 7724 ] final -155.74 input    0.00 | X-H torsion
[ 27224 7804 7803 7802 ] final   64.12 input    0.00 | X-H torsion

> <Gold.Protein.ActiveResidues>
 ASP403  THR404  LEU406  ILE407  TYR408  ALA410  LYS411  TRP414  GLN425  TRP426 
 SER427  LYS428  LEU429  GLN430  VAL431  PHE432  ASP433  TYR453  SER462  ALA463 
 ILE464 

> <Gold.Protein.RotatedAtoms>
  216.7904   48.6713   17.9092 H   0  0  0  0  0  0  0  0  0  0  0  0  # atno 6581 bound_to 6565
  218.3841   48.7207   20.3105 H   0  0  0  0  0  0  0  0  0  0  0  0  # atno 6673 bound_to 6649
  221.7078   44.0330   18.7864 H   0  0  0  0  0  0  0  0  0  0  0  0  # atno 6813 bound_to 6795
  230.1612   45.8720   19.5449 H   0  0  0  0  0  0  0  0  0  0  0  0  # atno 7894 bound_to 7881
  230.8564   47.7896   20.1424 H   0  0  0  0  0  0  0  0  0  0  0  0  # atno 7898 bound_to 7886
  229.6575   47.5216   17.4446 H   0  0  0  0  0  0  0  0  0  0  0  0  # atno 7949 bound_to 7931
  227.1322   47.3359   14.2706 H   0  0  0  0  0  0  0  0  0  0  0  0  # atno 8033 bound_to 8017
  225.8464   46.2583   12.1436 H   0  0  0  0  0  0  0  0  0  0  0  0  # atno 8113 bound_to 8095
  222.3021   46.7859   12.5790 H   0  0  0  0  0  0  0  0  0  0  0  0  # atno 8173 bound_to 8159
  219.7382   45.2346   10.1814 H   0  0  0  0  0  0  0  0  0  0  0  0  # atno 8253 bound_to 8231
  216.0479   47.1802   10.3906 H   0  0  0  0  0  0  0  0  0  0  0  0  # atno 8321 bound_to 8305
  227.2763   47.0796    8.0488 H   0  0  0  0  0  0  0  0  0  0  0  0  # atno 9553 bound_to 9532
  221.9588   42.5878   10.5604 H   0  0  0  0  0  0  0  0  0  0  0  0  # atno 10193 bound_to 10177
  216.3125   50.3771   16.8134 LP  0  0  0  0  0  0  0  0  0  0  0  0  # atno 27193 bound_to 6328
  215.6846   49.6045   18.2308 LP  0  0  0  0  0  0  0  0  0  0  0  0  # atno 27194 bound_to 6328
  217.0585   47.3115   18.9801 LP  0  0  0  0  0  0  0  0  0  0  0  0  # atno 27195 bound_to 6565
  220.3666   46.0487   18.5610 LP  0  0  0  0  0  0  0  0  0  0  0  0  # atno 27196 bound_to 6568
  221.2361   46.8210   19.8445 LP  0  0  0  0  0  0  0  0  0  0  0  0  # atno 27197 bound_to 6568
  219.8679   48.2955   19.4889 LP  0  0  0  0  0  0  0  0  0  0  0  0  # atno 27198 bound_to 6649
  228.0793   49.3960   17.2982 LP  0  0  0  0  0  0  0  0  0  0  0  0  # atno 27199 bound_to 7884
  226.8364   48.2648   16.8790 LP  0  0  0  0  0  0  0  0  0  0  0  0  # atno 27200 bound_to 7884
  227.7993   46.0955   15.3080 LP  0  0  0  0  0  0  0  0  0  0  0  0  # atno 27201 bound_to 8017
  223.5443   47.0277   14.1234 LP  0  0  0  0  0  0  0  0  0  0  0  0  # atno 27202 bound_to 8020
  224.9522   48.0290   13.9998 LP  0  0  0  0  0  0  0  0  0  0  0  0  # atno 27203 bound_to 8020
  224.6719   45.0266   12.5253 LP  0  0  0  0  0  0  0  0  0  0  0  0  # atno 27204 bound_to 8095
  222.5322   44.0789   12.1464 LP  0  0  0  0  0  0  0  0  0  0  0  0  # atno 27205 bound_to 8098
  222.2332   44.3118   10.4564 LP  0  0  0  0  0  0  0  0  0  0  0  0  # atno 27206 bound_to 8098
  221.7075   46.9955   10.9543 LP  0  0  0  0  0  0  0  0  0  0  0  0  # atno 27207 bound_to 8159
  217.9376   47.7317   10.7155 LP  0  0  0  0  0  0  0  0  0  0  0  0  # atno 27208 bound_to 8162
  219.4593   48.3107   11.3064 LP  0  0  0  0  0  0  0  0  0  0  0  0  # atno 27209 bound_to 8162
  218.5673   45.3696   11.4674 LP  0  0  0  0  0  0  0  0  0  0  0  0  # atno 27210 bound_to 8231
  225.9785   48.0445    8.2287 LP  0  0  0  0  0  0  0  0  0  0  0  0  # atno 27211 bound_to 9532
  227.1716   48.4604    7.1944 LP  0  0  0  0  0  0  0  0  0  0  0  0  # atno 27212 bound_to 9532
  225.5130   44.2035   10.4295 LP  0  0  0  0  0  0  0  0  0  0  0  0  # atno 27213 bound_to 10092
  227.2260   44.4449   10.3453 LP  0  0  0  0  0  0  0  0  0  0  0  0  # atno 27214 bound_to 10092
  215.9529   45.5182    9.8506 LP  0  0  0  0  0  0  0  0  0  0  0  0  # atno 27215 bound_to 8305
  223.0195   41.6896   11.6219 LP  0  0  0  0  0  0  0  0  0  0  0  0  # atno 27216 bound_to 10177
  219.6820   43.1886    9.9060 LP  0  0  0  0  0  0  0  0  0  0  0  0  # atno 27217 bound_to 10180
  219.4426   43.4217   11.6055 LP  0  0  0  0  0  0  0  0  0  0  0  0  # atno 27218 bound_to 10180
  228.8210   46.0153   17.1381 LP  0  0  0  0  0  0  0  0  0  0  0  0  # atno 27219 bound_to 7931
  228.9863   44.2276   14.7762 LP  0  0  0  0  0  0  0  0  0  0  0  0  # atno 27220 bound_to 7934
  229.2097   44.9979   13.2410 LP  0  0  0  0  0  0  0  0  0  0  0  0  # atno 27221 bound_to 7934
  229.7912   44.7883   17.3795 LP  0  0  0  0  0  0  0  0  0  0  0  0  # atno 27222 bound_to 7726
  230.7752   44.0997   16.1315 LP  0  0  0  0  0  0  0  0  0  0  0  0  # atno 27223 bound_to 7726
  226.7211   44.1763   19.3432 LP  0  0  0  0  0  0  0  0  0  0  0  0  # atno 27224 bound_to 7804
  227.1923   44.8730   17.8290 LP  0  0  0  0  0  0  0  0  0  0  0  0  # atno 27225 bound_to 7804
  228.6766   44.9703   19.3628 LP  0  0  0  0  0  0  0  0  0  0  0  0  # atno 27226 bound_to 7881
  230.5306   49.3835   20.0968 LP  0  0  0  0  0  0  0  0  0  0  0  0  # atno 27227 bound_to 7886
  230.4138   48.4842   18.7387 LP  0  0  0  0  0  0  0  0  0  0  0  0  # atno 27228 bound_to 7886

> <Gold.Score>
     Fitness  S(hb_ext) S(vdw_ext)  S(hb_int)    S(int)      intcor
     21.58       2.80      13.69       0.00      -0.04      -0.75

> <Gold.Goldscore.Fitness>
21.5809

> <Gold.Goldscore.Internal.Vdw>
-0.3264

> <Gold.Goldscore.Internal.Torsion>
-0.4717

> <Gold.Goldscore.External.Vdw>
13.6928

> <Gold.Goldscore.Internal.HBond>
0.0000

> <Gold.Goldscore.External.HBond>
2.7968

> <Gold.Goldscore.Internal.Correction>
-0.7548

> <Gold.Goldscore.Hbonds>
donor molecule, donor type, donor heavy atom, donor atom, acceptor molecule, acceptor atom, score
      P1  H  6803  6824       L1    11  0.05
      P1  H  8095  8113       L1    17  0.26
      L1  H    10    23       P1  8020  0.98

> <Gold.Goldscore.Internal.Vdw.Weighted>
-0.3264

> <Gold.Goldscore.Internal.Torsion.Weighted>
-0.4717

> <Gold.Goldscore.External.Vdw.Weighted>
18.8275

> <Gold.Goldscore.Internal.HBond.Weighted>
0.0000

> <Gold.Goldscore.External.HBond.Weighted>
2.7968

> <Gold.Goldscore.Internal.Correction.Weighted>
-0.7548

> <Gold.Rescore>
     Score     S(PLP)   S(hbond)     S(cho)   S(metal)  DE(clash)   DE(tors)     intcor
     23.63     -16.01       2.58       0.00       0.00       0.00       0.06       ----

> <Gold.PLP.Fitness>
23.6345

> <Gold.PLP.PLP>
-16.0132

> <Gold.PLP.part.hbond>
-3.8640

> <Gold.PLP.part.metal>
0.0000

> <Gold.PLP.part.buried>
-2.6680

> <Gold.PLP.part.nonpolar>
-10.7307

> <Gold.PLP.part.repulsive>
0.4378

> <Gold.PLP.ligand.clash>
0.0000

> <Gold.PLP.ligand.torsion>
0.0594

> <Gold.PLP.Chemscore.Hbond>
2.5800

> <Gold.PLP.Chemscore.CHOScore>
0.0000

> <Gold.PLP.Chemscore.Metal>
0.0000

> <Gold.Chemscore.Hbonds>
donor molecule, donor type, donor heavy atom, donor atom, acceptor molecule, acceptor atom, score
      L1  H    10    23       P1  8020  1.00
      P1  H  6803  6824       L1    11  1.00
      P1  H  8095  8113       L1    17  0.96

> <Gold.PLP.Chemscore.Internal.Correction>
   9.000000E+99

#       Name:                CT1002167954
#       Creating user name   hitesit
#       Creation time:       Sun Apr 16 23:01:21 2023


#       File generated by GOLD software.
#

@<TRIPOS>MOLECULE
CT1002167954|ligand_prepared|mol2|1|dock6
    29    30     1
SMALL
NO_CHARGES


@<TRIPOS>ATOM
      1 C1         225.5427  51.5390  13.0558 C.3            1 RES1               0.0000
      2 C2         226.2126  52.9275  13.0988 C.ar           1 RES1               0.0000
      3 C3         226.0435  50.8608  11.7840 C.2            1 RES1               0.0000
      4 C4         225.9506  50.8285  14.3416 C.2            1 RES1               0.0000
      5 C5         223.9978  51.5918  13.0085 C.3            1 RES1               0.0000
      6 C6         227.5960  53.0499  13.0089 C.ar           1 RES1               0.0000
      7 C7         225.4617  54.0932  13.2251 C.ar           1 RES1               0.0000
      8 N8         226.9578  49.8582  11.9206 N.am           1 RES1               0.0000
      9 O9         225.6717  51.2267  10.6758 O.2            1 RES1               0.0000
     10 N10        226.7456  49.7173  14.2368 N.am           1 RES1               0.0000
     11 O11        225.6044  51.2306  15.4456 O.2            1 RES1               0.0000
     12 C12        223.3358  50.2237  13.0561 C.3            1 RES1               0.0000
     13 C13        228.2064  54.2928  13.0411 C.ar           1 RES1               0.0000
     14 C14        226.0742  55.3351  13.2573 C.ar           1 RES1               0.0000
     15 C15        227.2930  49.2179  13.0865 C.2            1 RES1               0.0000
     16 C16        227.4461  55.4361  13.1648 C.ar           1 RES1               0.0000
     17 O17        228.0431  48.2461  13.0792 O.2            1 RES1               0.0000
     18 H18        223.6388  52.1875  13.8568 H              1 RES1               0.0000
     19 H19        223.6899  52.1011  12.0870 H              1 RES1               0.0000
     20 H20        228.2109  52.1612  12.9135 H              1 RES1               0.0000
     21 H21        224.3810  54.0378  13.3005 H              1 RES1               0.0000
     22 H22        227.4368  49.5567  11.0780 H              1 RES1               0.0000
     23 H23        226.9480  49.2159  15.0959 H              1 RES1               0.0000
     24 H24        222.2525  50.3180  13.0202 H              1 RES1               0.0000
     25 H25        223.6510  49.6131  12.2126 H              1 RES1               0.0000
     26 H26        223.6002  49.6990  13.9719 H              1 RES1               0.0000
     27 H27        229.2865  54.3668  12.9693 H              1 RES1               0.0000
     28 H28        225.4719  56.2322  13.3554 H              1 RES1               0.0000
     29 H29        227.9245  56.4096  13.1896 H              1 RES1               0.0000
@<TRIPOS>BOND
    1    1    2 1     
    2    1    3 1     
    3    1    4 1     
    4    1    5 1     
    5    2    6 ar    
    6    2    7 ar    
    7    3    8 1     
    8    3    9 2     
    9    4   10 1     
   10    4   11 2     
   11    5   12 1     
   12    5   18 1     
   13    5   19 1     
   14    6   13 ar    
   15    6   20 1     
   16    7   14 ar    
   17    7   21 1     
   18    8   15 1     
   19    8   22 1     
   20   10   15 1     
   21   10   23 1     
   22   12   24 1     
   23   12   25 1     
   24   12   26 1     
   25   13   16 ar    
   26   13   27 1     
   27   14   16 ar    
   28   14   28 1     
   29   15   17 2     
   30   16   29 1     
@<TRIPOS>SUBSTRUCTURE
      1 RES1           1
@<TRIPOS>SET
DONOR_HYDROGENS      STATIC     ATOMS    <user>   **** ""
2 22 23
ATOM$RED        STATIC     ATOMS    COLORGROUP SYSTEM
2 22 23
@<TRIPOS>COMMENT
> <Gold.Version>
2022.3.0

> <Gold.Id.Protein>
unknown|4d1n_clean|pdb

> <Gold.Protein.RotatedTorsions>
[ 6581 6565 6566 6567 ] final  159.71 input  113.40 | X-H torsion
[ 6673 6649 6650 6651 ] final -160.75 input  128.31 | X-H torsion
[ 8033 8017 8018 8019 ] final  -78.91 input   38.97 | X-H torsion
[ 8113 8095 8096 8097 ] final   12.80 input   94.22 | X-H torsion
[ 8173 8159 8160 8161 ] final  121.30 input   69.09 | X-H torsion
[ 8253 8231 8232 8233 ] final -129.71 input   84.65 | X-H torsion
[ 9553 9532 9531 9529 ] final    5.45 input   60.02 | X-H torsion
[ 8321 8305 8306 8307 ] final  -16.62 input   94.69 | X-H torsion
[ 10193 10177 10178 10179 ] final -164.25 input   41.54 | X-H torsion
[ 7949 7931 7932 7933 ] final  161.91 input   80.35 | X-H torsion
[ 7894 7881 7882 7883 ] final  153.60 input   97.23 | X-H torsion
[ 7898 7886 7885 7882 ] final   20.75 input   59.98 | X-H torsion
[ 6813 6795 6796 6797 ] final    5.04 input  114.70 | X-H torsion
[ 27193 6328 6327 6326 ] final -167.60 input    0.00 | X-H torsion
[ 27196 6568 6567 6566 ] final  138.79 input   -0.00 | X-H torsion
[ 27199 7884 7883 7882 ] final    2.34 input   -0.00 | X-H torsion
[ 27202 8020 8019 8018 ] final -100.52 input   -0.00 | X-H torsion
[ 27205 8098 8097 8096 ] final    8.79 input   -0.00 | X-H torsion
[ 27208 8162 8161 8160 ] final -145.41 input    0.00 | X-H torsion
[ 27213 10092 10091 10090 ] final  -66.49 input    0.00 | X-H torsion
[ 27217 10180 10179 10178 ] final    9.94 input    0.00 | X-H torsion
[ 27220 7934 7933 7932 ] final  134.80 input    0.00 | X-H torsion
[ 27222 7726 7725 7724 ] final  116.13 input    0.00 | X-H torsion
[ 27224 7804 7803 7802 ] final -171.04 input    0.00 | X-H torsion

> <Gold.Protein.ActiveResidues>
 ASP403  THR404  LEU406  ILE407  TYR408  ALA410  LYS411  TRP414  GLN425  TRP426 
 SER427  LYS428  LEU429  GLN430  VAL431  PHE432  ASP433  TYR453  SER462  ALA463 
 ILE464 

> <Gold.Protein.RotatedAtoms>
  216.7506   48.4725   17.7329 H   0  0  0  0  0  0  0  0  0  0  0  0  # atno 6581 bound_to 6565
  219.6213   49.2444   19.8506 H   0  0  0  0  0  0  0  0  0  0  0  0  # atno 6673 bound_to 6649
  221.3687   43.7723   20.4316 H   0  0  0  0  0  0  0  0  0  0  0  0  # atno 6813 bound_to 6795
  229.5555   45.6724   20.2848 H   0  0  0  0  0  0  0  0  0  0  0  0  # atno 7894 bound_to 7881
  230.4954   48.1513   18.8199 H   0  0  0  0  0  0  0  0  0  0  0  0  # atno 7898 bound_to 7886
  229.9651   47.2475   17.4009 H   0  0  0  0  0  0  0  0  0  0  0  0  # atno 7949 bound_to 7931
  227.8538   46.7301   13.9970 H   0  0  0  0  0  0  0  0  0  0  0  0  # atno 8033 bound_to 8017
  224.6859   44.9878   12.4895 H   0  0  0  0  0  0  0  0  0  0  0  0  # atno 8113 bound_to 8095
  222.0202   47.3282   12.5210 H   0  0  0  0  0  0  0  0  0  0  0  0  # atno 8173 bound_to 8159
  219.4759   46.1012   10.6670 H   0  0  0  0  0  0  0  0  0  0  0  0  # atno 8253 bound_to 8231
  215.6790   45.8447    9.4475 H   0  0  0  0  0  0  0  0  0  0  0  0  # atno 8321 bound_to 8305
  226.6875   48.6640    7.3615 H   0  0  0  0  0  0  0  0  0  0  0  0  # atno 9553 bound_to 9532
  223.0510   41.4986   11.3742 H   0  0  0  0  0  0  0  0  0  0  0  0  # atno 10193 bound_to 10177
  216.4282   50.2722   18.2194 LP  0  0  0  0  0  0  0  0  0  0  0  0  # atno 27193 bound_to 6328
  215.5689   49.7094   16.8248 LP  0  0  0  0  0  0  0  0  0  0  0  0  # atno 27194 bound_to 6328
  217.0969   47.5031   19.1500 LP  0  0  0  0  0  0  0  0  0  0  0  0  # atno 27195 bound_to 6565
  221.3415   46.9238   19.6708 LP  0  0  0  0  0  0  0  0  0  0  0  0  # atno 27196 bound_to 6568
  220.2611   45.9458   18.7347 LP  0  0  0  0  0  0  0  0  0  0  0  0  # atno 27197 bound_to 6568
  218.6621   47.7850   19.9372 LP  0  0  0  0  0  0  0  0  0  0  0  0  # atno 27198 bound_to 6649
  227.1770   48.9487   17.8992 LP  0  0  0  0  0  0  0  0  0  0  0  0  # atno 27199 bound_to 7884
  227.7387   48.7121   16.2779 LP  0  0  0  0  0  0  0  0  0  0  0  0  # atno 27200 bound_to 7884
  227.0982   46.6842   15.5740 LP  0  0  0  0  0  0  0  0  0  0  0  0  # atno 27201 bound_to 8017
  223.5641   47.0101   14.1771 LP  0  0  0  0  0  0  0  0  0  0  0  0  # atno 27202 bound_to 8020
  224.9324   48.0466   13.9461 LP  0  0  0  0  0  0  0  0  0  0  0  0  # atno 27203 bound_to 8020
  225.8169   46.2801   12.1840 LP  0  0  0  0  0  0  0  0  0  0  0  0  # atno 27204 bound_to 8095
  223.2396   44.1140   11.2064 LP  0  0  0  0  0  0  0  0  0  0  0  0  # atno 27205 bound_to 8098
  221.5257   44.2766   11.3964 LP  0  0  0  0  0  0  0  0  0  0  0  0  # atno 27206 bound_to 8098
  221.9875   46.4569   11.0120 LP  0  0  0  0  0  0  0  0  0  0  0  0  # atno 27207 bound_to 8159
  217.9008   47.7348   10.8328 LP  0  0  0  0  0  0  0  0  0  0  0  0  # atno 27208 bound_to 8162
  219.4961   48.3077   11.1890 LP  0  0  0  0  0  0  0  0  0  0  0  0  # atno 27209 bound_to 8162
  218.8261   44.5144   10.9882 LP  0  0  0  0  0  0  0  0  0  0  0  0  # atno 27210 bound_to 8231
  227.5862   47.3450    7.6783 LP  0  0  0  0  0  0  0  0  0  0  0  0  # atno 27211 bound_to 9532
  226.1570   47.5642    8.4371 LP  0  0  0  0  0  0  0  0  0  0  0  0  # atno 27212 bound_to 9532
  226.6425   44.4309   11.2023 LP  0  0  0  0  0  0  0  0  0  0  0  0  # atno 27213 bound_to 10092
  226.0965   44.2175    9.5725 LP  0  0  0  0  0  0  0  0  0  0  0  0  # atno 27214 bound_to 10092
  216.3099   46.8109   10.7634 LP  0  0  0  0  0  0  0  0  0  0  0  0  # atno 27215 bound_to 8305
  221.9567   42.7496   10.8299 LP  0  0  0  0  0  0  0  0  0  0  0  0  # atno 27216 bound_to 10177
  220.3931   43.4184   10.9725 LP  0  0  0  0  0  0  0  0  0  0  0  0  # atno 27217 bound_to 10180
  218.7315   43.1919   10.5390 LP  0  0  0  0  0  0  0  0  0  0  0  0  # atno 27218 bound_to 10180
  228.5229   46.2809   17.1805 LP  0  0  0  0  0  0  0  0  0  0  0  0  # atno 27219 bound_to 7931
  228.4424   44.1647   14.3542 LP  0  0  0  0  0  0  0  0  0  0  0  0  # atno 27220 bound_to 7934
  229.7536   45.0608   13.6629 LP  0  0  0  0  0  0  0  0  0  0  0  0  # atno 27221 bound_to 7934
  229.7529   43.7594   16.7546 LP  0  0  0  0  0  0  0  0  0  0  0  0  # atno 27222 bound_to 7726
  230.8135   45.1287   16.7565 LP  0  0  0  0  0  0  0  0  0  0  0  0  # atno 27223 bound_to 7726
  226.9469   45.3719   18.4068 LP  0  0  0  0  0  0  0  0  0  0  0  0  # atno 27224 bound_to 7804
  226.9665   43.6775   18.7654 LP  0  0  0  0  0  0  0  0  0  0  0  0  # atno 27225 bound_to 7804
  229.2700   45.1658   18.6379 LP  0  0  0  0  0  0  0  0  0  0  0  0  # atno 27226 bound_to 7881
  230.8673   48.0299   20.3997 LP  0  0  0  0  0  0  0  0  0  0  0  0  # atno 27227 bound_to 7886
  230.4406   49.4736   19.7671 LP  0  0  0  0  0  0  0  0  0  0  0  0  # atno 27228 bound_to 7886

> <Gold.Score>
     Fitness  S(hb_ext) S(vdw_ext)  S(hb_int)    S(int)      intcor
     17.50       2.61      11.69       0.00      -1.19      -0.75

> <Gold.Goldscore.Fitness>
17.4971

> <Gold.Goldscore.Internal.Vdw>
-1.5548

> <Gold.Goldscore.Internal.Torsion>
-0.3873

> <Gold.Goldscore.External.Vdw>
11.6934

> <Gold.Goldscore.Internal.HBond>
0.0000

> <Gold.Goldscore.External.HBond>
2.6060

> <Gold.Goldscore.Internal.Correction>
-0.7548

> <Gold.Goldscore.Hbonds>
donor molecule, donor type, donor heavy atom, donor atom, acceptor molecule, acceptor atom, score
      P1  H  6803  6824       L1    11  0.13
      P1  H  8017  8033       L1    17  0.05
      P1  H  8102  8119       L1     9  0.13
      L1  H    10    23       P1  7884  0.73

> <Gold.Goldscore.Internal.Vdw.Weighted>
-1.5548

> <Gold.Goldscore.Internal.Torsion.Weighted>
-0.3873

> <Gold.Goldscore.External.Vdw.Weighted>
16.0784

> <Gold.Goldscore.Internal.HBond.Weighted>
0.0000

> <Gold.Goldscore.External.HBond.Weighted>
2.6060

> <Gold.Goldscore.Internal.Correction.Weighted>
-0.7548

> <Gold.Rescore>
     Score     S(PLP)   S(hbond)     S(cho)   S(metal)  DE(clash)   DE(tors)     intcor
     16.67     -10.23       2.16       0.00       0.00       0.00       0.02       ----

> <Gold.PLP.Fitness>
16.6711

> <Gold.PLP.PLP>
-10.2278

> <Gold.PLP.part.hbond>
-2.3353

> <Gold.PLP.part.metal>
0.0000

> <Gold.PLP.part.buried>
-1.4672

> <Gold.PLP.part.nonpolar>
-7.5691

> <Gold.PLP.part.repulsive>
0.5836

> <Gold.PLP.ligand.clash>
0.0000

> <Gold.PLP.ligand.torsion>
0.0210

> <Gold.PLP.Chemscore.Hbond>
2.1618

> <Gold.PLP.Chemscore.CHOScore>
0.0000

> <Gold.PLP.Chemscore.Metal>
0.0000

> <Gold.Chemscore.Hbonds>
donor molecule, donor type, donor heavy atom, donor atom, acceptor molecule, acceptor atom, score
      L1  H    10    23       P1  7884  0.21
      P1  H  6803  6824       L1    11  0.62
      P1  H  8017  8033       L1    17  0.66
      P1  H  8102  8119       L1     9  0.57

> <Gold.PLP.Chemscore.Internal.Correction>
   9.000000E+99

