#       Name:                CT1002167954
#       Creating user name   hitesit
#       Creation time:       Sun Apr 16 23:01:19 2023


#       File generated by GOLD software.
#

@<TRIPOS>MOLECULE
CT1002167954|ligand_prepared|mol2|1|dock1
    29    30     1
SMALL
NO_CHARGES


@<TRIPOS>ATOM
      1 C1         224.7421  51.6798  13.0882 C.3            1 RES1               0.0000
      2 C2         226.0989  50.9565  12.9667 C.ar           1 RES1               0.0000
      3 C3         224.0420  51.5061  11.7436 C.2            1 RES1               0.0000
      4 C4         224.0138  51.0267  14.2577 C.2            1 RES1               0.0000
      5 C5         224.8648  53.1922  13.3864 C.3            1 RES1               0.0000
      6 C6         226.1558  49.5701  12.8603 C.ar           1 RES1               0.0000
      7 C7         227.2998  51.6611  12.9567 C.ar           1 RES1               0.0000
      8 N8         222.9990  50.6295  11.6829 N.am           1 RES1               0.0000
      9 O9         224.4245  52.0995  10.7427 O.2            1 RES1               0.0000
     10 N10        222.8678  50.3250  13.9894 N.am           1 RES1               0.0000
     11 O11        224.4311  51.0994  15.4070 O.2            1 RES1               0.0000
     12 C12        223.5341  53.8712  13.6698 C.3            1 RES1               0.0000
     13 C13        227.3691  48.9120  12.7453 C.ar           1 RES1               0.0000
     14 C14        228.5120  51.0010  12.8418 C.ar           1 RES1               0.0000
     15 C15        222.3442  50.0710  12.7510 C.2            1 RES1               0.0000
     16 C16        228.5478  49.6269  12.7355 C.ar           1 RES1               0.0000
     17 O17        221.3394  49.3851  12.5862 O.2            1 RES1               0.0000
     18 H18        225.5227  53.3290  14.2534 H              1 RES1               0.0000
     19 H19        225.3363  53.6845  12.5268 H              1 RES1               0.0000
     20 H20        225.2387  48.9905  12.8687 H              1 RES1               0.0000
     21 H21        227.2958  52.7426  13.0402 H              1 RES1               0.0000
     22 H22        222.6762  50.3647  10.7577 H              1 RES1               0.0000
     23 H23        222.3577  49.9582  14.7866 H              1 RES1               0.0000
     24 H24        223.6770  54.9306  13.8724 H              1 RES1               0.0000
     25 H25        222.8636  53.7766  12.8181 H              1 RES1               0.0000
     26 H26        223.0489  53.4232  14.5345 H              1 RES1               0.0000
     27 H27        227.3919  47.8303  12.6632 H              1 RES1               0.0000
     28 H28        229.4373  51.5676  12.8352 H              1 RES1               0.0000
     29 H29        229.4981  49.1112  12.6449 H              1 RES1               0.0000
@<TRIPOS>BOND
    1    1    2 1     
    2    1    3 1     
    3    1    4 1     
    4    1    5 1     
    5    2    6 ar    
    6    2    7 ar    
    7    3    8 1     
    8    3    9 2     
    9    4   10 1     
   10    4   11 2     
   11    5   12 1     
   12    5   18 1     
   13    5   19 1     
   14    6   13 ar    
   15    6   20 1     
   16    7   14 ar    
   17    7   21 1     
   18    8   15 1     
   19    8   22 1     
   20   10   15 1     
   21   10   23 1     
   22   12   24 1     
   23   12   25 1     
   24   12   26 1     
   25   13   16 ar    
   26   13   27 1     
   27   14   16 ar    
   28   14   28 1     
   29   15   17 2     
   30   16   29 1     
@<TRIPOS>SUBSTRUCTURE
      1 RES1           1
@<TRIPOS>SET
DONOR_HYDROGENS      STATIC     ATOMS    <user>   **** ""
2 22 23
ATOM$RED        STATIC     ATOMS    COLORGROUP SYSTEM
2 22 23
@<TRIPOS>COMMENT
> <Gold.Version>
2022.3.0

> <Gold.Id.Protein>
unknown|4d1n_clean|pdb

> <Gold.Protein.RotatedTorsions>
[ 6581 6565 6566 6567 ] final  147.45 input  113.40 | X-H torsion
[ 6673 6649 6650 6651 ] final  157.68 input  128.31 | X-H torsion
[ 8033 8017 8018 8019 ] final   87.01 input   38.97 | X-H torsion
[ 8113 8095 8096 8097 ] final -116.36 input   94.22 | X-H torsion
[ 8173 8159 8160 8161 ] final  143.05 input   69.09 | X-H torsion
[ 8253 8231 8232 8233 ] final   85.55 input   84.65 | X-H torsion
[ 9553 9532 9531 9529 ] final  153.72 input   60.02 | X-H torsion
[ 8321 8305 8306 8307 ] final  -54.37 input   94.69 | X-H torsion
[ 10193 10177 10178 10179 ] final  151.51 input   41.54 | X-H torsion
[ 7949 7931 7932 7933 ] final -109.19 input   80.35 | X-H torsion
[ 7894 7881 7882 7883 ] final   65.26 input   97.23 | X-H torsion
[ 7898 7886 7885 7882 ] final   53.89 input   59.98 | X-H torsion
[ 6813 6795 6796 6797 ] final   45.31 input  114.70 | X-H torsion
[ 27193 6328 6327 6326 ] final -161.41 input    0.00 | X-H torsion
[ 27196 6568 6567 6566 ] final  110.04 input   -0.00 | X-H torsion
[ 27199 7884 7883 7882 ] final -113.34 input   -0.00 | X-H torsion
[ 27202 8020 8019 8018 ] final   26.77 input   -0.00 | X-H torsion
[ 27205 8098 8097 8096 ] final -164.13 input   -0.00 | X-H torsion
[ 27208 8162 8161 8160 ] final  -19.82 input    0.00 | X-H torsion
[ 27213 10092 10091 10090 ] final -149.05 input    0.00 | X-H torsion
[ 27217 10180 10179 10178 ] final   67.84 input    0.00 | X-H torsion
[ 27220 7934 7933 7932 ] final  -42.95 input    0.00 | X-H torsion
[ 27222 7726 7725 7724 ] final   59.55 input    0.00 | X-H torsion
[ 27224 7804 7803 7802 ] final -156.28 input    0.00 | X-H torsion

> <Gold.Protein.ActiveResidues>
 ASP403  THR404  LEU406  ILE407  TYR408  ALA410  LYS411  TRP414  GLN425  TRP426 
 SER427  LYS428  LEU429  GLN430  VAL431  PHE432  ASP433  TYR453  SER462  ALA463 
 ILE464 

> <Gold.Protein.RotatedAtoms>
  216.7771   48.6190   17.8518 H   0  0  0  0  0  0  0  0  0  0  0  0  # atno 6581 bound_to 6565
  219.0738   49.3542   20.1387 H   0  0  0  0  0  0  0  0  0  0  0  0  # atno 6673 bound_to 6649
  221.3191   44.3749   20.4589 H   0  0  0  0  0  0  0  0  0  0  0  0  # atno 6813 bound_to 6795
  230.1678   45.8106   19.2277 H   0  0  0  0  0  0  0  0  0  0  0  0  # atno 7894 bound_to 7881
  230.3785   48.6690   18.7584 H   0  0  0  0  0  0  0  0  0  0  0  0  # atno 7898 bound_to 7886
  228.7441   47.4895   17.4078 H   0  0  0  0  0  0  0  0  0  0  0  0  # atno 7949 bound_to 7931
  226.9621   46.8402   15.5115 H   0  0  0  0  0  0  0  0  0  0  0  0  # atno 8033 bound_to 8017
  225.3980   46.3709   12.7981 H   0  0  0  0  0  0  0  0  0  0  0  0  # atno 8113 bound_to 8095
  222.1796   47.0518   12.6052 H   0  0  0  0  0  0  0  0  0  0  0  0  # atno 8173 bound_to 8159
  219.1825   44.4548   10.6024 H   0  0  0  0  0  0  0  0  0  0  0  0  # atno 8253 bound_to 8231
  215.9237   45.4956    9.8342 H   0  0  0  0  0  0  0  0  0  0  0  0  # atno 8321 bound_to 8305
  226.4818   47.2401    8.4448 H   0  0  0  0  0  0  0  0  0  0  0  0  # atno 9553 bound_to 9532
  222.9133   41.9394   11.8563 H   0  0  0  0  0  0  0  0  0  0  0  0  # atno 10193 bound_to 10177
  216.3734   50.2156   18.2697 LP  0  0  0  0  0  0  0  0  0  0  0  0  # atno 27193 bound_to 6328
  215.6237   49.7659   16.7745 LP  0  0  0  0  0  0  0  0  0  0  0  0  # atno 27194 bound_to 6328
  217.0712   47.3619   19.0354 LP  0  0  0  0  0  0  0  0  0  0  0  0  # atno 27195 bound_to 6565
  221.4350   47.0221   19.2627 LP  0  0  0  0  0  0  0  0  0  0  0  0  # atno 27196 bound_to 6568
  220.1677   45.8476   19.1428 LP  0  0  0  0  0  0  0  0  0  0  0  0  # atno 27197 bound_to 6568
  219.1957   47.6780   19.6564 LP  0  0  0  0  0  0  0  0  0  0  0  0  # atno 27198 bound_to 6649
  226.9965   48.2765   16.6086 LP  0  0  0  0  0  0  0  0  0  0  0  0  # atno 27199 bound_to 7884
  227.9193   49.3842   17.5685 LP  0  0  0  0  0  0  0  0  0  0  0  0  # atno 27200 bound_to 7884
  227.9646   46.5772   14.1023 LP  0  0  0  0  0  0  0  0  0  0  0  0  # atno 27201 bound_to 8017
  224.9097   47.6534   14.6064 LP  0  0  0  0  0  0  0  0  0  0  0  0  # atno 27202 bound_to 8020
  223.5868   47.4033   13.5167 LP  0  0  0  0  0  0  0  0  0  0  0  0  # atno 27203 bound_to 8020
  225.1143   44.9155   11.8796 LP  0  0  0  0  0  0  0  0  0  0  0  0  # atno 27204 bound_to 8095
  221.5219   44.2896   11.2903 LP  0  0  0  0  0  0  0  0  0  0  0  0  # atno 27205 bound_to 8098
  223.2435   44.1010   11.3124 LP  0  0  0  0  0  0  0  0  0  0  0  0  # atno 27206 bound_to 8098
  221.8291   46.7313   10.9284 LP  0  0  0  0  0  0  0  0  0  0  0  0  # atno 27207 bound_to 8159
  218.9977   48.2221   11.7984 LP  0  0  0  0  0  0  0  0  0  0  0  0  # atno 27208 bound_to 8162
  218.3992   47.8203   10.2234 LP  0  0  0  0  0  0  0  0  0  0  0  0  # atno 27209 bound_to 8162
  219.1157   46.1390   11.0520 LP  0  0  0  0  0  0  0  0  0  0  0  0  # atno 27210 bound_to 8231
  226.3115   48.6342    7.6231 LP  0  0  0  0  0  0  0  0  0  0  0  0  # atno 27211 bound_to 9532
  227.6388   47.7091    7.4013 LP  0  0  0  0  0  0  0  0  0  0  0  0  # atno 27212 bound_to 9532
  225.5992   44.2445   10.7751 LP  0  0  0  0  0  0  0  0  0  0  0  0  # atno 27213 bound_to 10092
  227.1398   44.4039    9.9997 LP  0  0  0  0  0  0  0  0  0  0  0  0  # atno 27214 bound_to 10092
  216.0731   47.1487   10.3892 LP  0  0  0  0  0  0  0  0  0  0  0  0  # atno 27215 bound_to 8305
  222.0907   42.3207   10.3608 LP  0  0  0  0  0  0  0  0  0  0  0  0  # atno 27216 bound_to 10177
  220.1987   43.2784   10.1690 LP  0  0  0  0  0  0  0  0  0  0  0  0  # atno 27217 bound_to 10180
  218.9259   43.3319   11.3425 LP  0  0  0  0  0  0  0  0  0  0  0  0  # atno 27218 bound_to 10180
  229.7060   46.0464   17.1738 LP  0  0  0  0  0  0  0  0  0  0  0  0  # atno 27219 bound_to 7931
  229.7711   45.0562   13.6918 LP  0  0  0  0  0  0  0  0  0  0  0  0  # atno 27220 bound_to 7934
  228.4250   44.1694   14.3254 LP  0  0  0  0  0  0  0  0  0  0  0  0  # atno 27221 bound_to 7934
  230.3876   43.7607   16.2338 LP  0  0  0  0  0  0  0  0  0  0  0  0  # atno 27222 bound_to 7726
  230.1788   45.1274   17.2772 LP  0  0  0  0  0  0  0  0  0  0  0  0  # atno 27223 bound_to 7726
  227.0221   45.3018   18.2096 LP  0  0  0  0  0  0  0  0  0  0  0  0  # atno 27224 bound_to 7804
  226.8913   43.7475   18.9626 LP  0  0  0  0  0  0  0  0  0  0  0  0  # atno 27225 bound_to 7804
  228.6701   45.0304   19.6735 LP  0  0  0  0  0  0  0  0  0  0  0  0  # atno 27226 bound_to 7881
  230.8419   47.6965   19.9783 LP  0  0  0  0  0  0  0  0  0  0  0  0  # atno 27227 bound_to 7886
  230.5837   49.2858   20.2504 LP  0  0  0  0  0  0  0  0  0  0  0  0  # atno 27228 bound_to 7886

> <Gold.Score>
     Fitness  S(hb_ext) S(vdw_ext)  S(hb_int)    S(int)      intcor
     32.35      11.20      15.46       0.00      -0.10      -0.75

> <Gold.Goldscore.Fitness>
32.3548

> <Gold.Goldscore.Internal.Vdw>
-0.4122

> <Gold.Goldscore.Internal.Torsion>
-0.4406

> <Gold.Goldscore.External.Vdw>
15.4561

> <Gold.Goldscore.Internal.HBond>
0.0000

> <Gold.Goldscore.External.HBond>
11.2007

> <Gold.Goldscore.Internal.Correction>
-0.7548

> <Gold.Goldscore.Hbonds>
donor molecule, donor type, donor heavy atom, donor atom, acceptor molecule, acceptor atom, score
      P1  H  6803  6824       L1    11  0.77
      P1  H  8102  8119       L1     9  0.36
      L1  H     8    22       P1  8103  0.97

> <Gold.Goldscore.Internal.Vdw.Weighted>
-0.4122

> <Gold.Goldscore.Internal.Torsion.Weighted>
-0.4406

> <Gold.Goldscore.External.Vdw.Weighted>
21.2521

> <Gold.Goldscore.Internal.HBond.Weighted>
0.0000

> <Gold.Goldscore.External.HBond.Weighted>
11.2007

> <Gold.Goldscore.Internal.Correction.Weighted>
-0.7548

> <Gold.Rescore>
     Score     S(PLP)   S(hbond)     S(cho)   S(metal)  DE(clash)   DE(tors)     intcor
     25.36     -18.80       2.21       0.00       0.00       0.00       0.03       ----

> <Gold.PLP.Fitness>
25.3619

> <Gold.PLP.PLP>
-18.8035

> <Gold.PLP.part.hbond>
-2.8291

> <Gold.PLP.part.metal>
0.0000

> <Gold.PLP.part.buried>
-4.1135

> <Gold.PLP.part.nonpolar>
-13.4759

> <Gold.PLP.part.repulsive>
0.4375

> <Gold.PLP.ligand.clash>
0.0000

> <Gold.PLP.ligand.torsion>
0.0295

> <Gold.PLP.Chemscore.Hbond>
2.2058

> <Gold.PLP.Chemscore.CHOScore>
0.0000

> <Gold.PLP.Chemscore.Metal>
0.0000

> <Gold.Chemscore.Hbonds>
donor molecule, donor type, donor heavy atom, donor atom, acceptor molecule, acceptor atom, score
      L1  H     8    22       P1  8103  0.75
      P1  H  6803  6824       L1    11  0.49
      P1  H  8102  8119       L1     9  0.25

> <Gold.PLP.Chemscore.Internal.Correction>
   9.000000E+99

