#       Name:                CT1002167954
#       Creating user name   hitesit
#       Creation time:       Sun Apr 16 23:01:22 2023


#       File generated by GOLD software.
#

@<TRIPOS>MOLECULE
CT1002167954|ligand_prepared|mol2|1|dock8
    29    30     1
SMALL
NO_CHARGES


@<TRIPOS>ATOM
      1 C1         227.9006  50.7009  12.2641 C.3            1 RES1               0.0000
      2 C2         228.1530  49.3434  11.5768 C.ar           1 RES1               0.0000
      3 C3         226.5654  51.2102  11.7292 C.2            1 RES1               0.0000
      4 C4         227.9063  50.4272  13.7640 C.2            1 RES1               0.0000
      5 C5         228.9855  51.7624  11.9680 C.3            1 RES1               0.0000
      6 C6         229.0267  49.2471  10.4978 C.ar           1 RES1               0.0000
      7 C7         227.5228  48.1804  12.0113 C.ar           1 RES1               0.0000
      8 N8         225.4885  51.1570  12.5644 N.am           1 RES1               0.0000
      9 O9         226.4504  51.6154  10.5791 O.2            1 RES1               0.0000
     10 N10        226.7364  50.6078  14.4541 N.am           1 RES1               0.0000
     11 O11        228.9092  50.0408  14.3515 O.2            1 RES1               0.0000
     12 C12        228.8321  53.0389  12.7800 C.3            1 RES1               0.0000
     13 C13        229.2640  48.0317   9.8775 C.ar           1 RES1               0.0000
     14 C14        227.7614  46.9660  11.3894 C.ar           1 RES1               0.0000
     15 C15        225.5200  50.9307  13.9170 C.2            1 RES1               0.0000
     16 C16        228.6320  46.8904  10.3231 C.ar           1 RES1               0.0000
     17 O17        224.5010  51.0217  14.5955 O.2            1 RES1               0.0000
     18 H18        229.9709  51.3278  12.1761 H              1 RES1               0.0000
     19 H19        228.9494  52.0161  10.9013 H              1 RES1               0.0000
     20 H20        229.5313  50.1350  10.1316 H              1 RES1               0.0000
     21 H21        226.8331  48.2163  12.8477 H              1 RES1               0.0000
     22 H22        224.5754  51.2986  12.1444 H              1 RES1               0.0000
     23 H23        226.7758  50.4907  15.4616 H              1 RES1               0.0000
     24 H24        229.6182  53.7495  12.5337 H              1 RES1               0.0000
     25 H25        227.8729  53.5113  12.5785 H              1 RES1               0.0000
     26 H26        228.8883  52.8271  13.8457 H              1 RES1               0.0000
     27 H27        229.9490  47.9777   9.0378 H              1 RES1               0.0000
     28 H28        227.2613  46.0704  11.7431 H              1 RES1               0.0000
     29 H29        228.8184  45.9383   9.8372 H              1 RES1               0.0000
@<TRIPOS>BOND
    1    1    2 1     
    2    1    3 1     
    3    1    4 1     
    4    1    5 1     
    5    2    6 ar    
    6    2    7 ar    
    7    3    8 1     
    8    3    9 2     
    9    4   10 1     
   10    4   11 2     
   11    5   12 1     
   12    5   18 1     
   13    5   19 1     
   14    6   13 ar    
   15    6   20 1     
   16    7   14 ar    
   17    7   21 1     
   18    8   15 1     
   19    8   22 1     
   20   10   15 1     
   21   10   23 1     
   22   12   24 1     
   23   12   25 1     
   24   12   26 1     
   25   13   16 ar    
   26   13   27 1     
   27   14   16 ar    
   28   14   28 1     
   29   15   17 2     
   30   16   29 1     
@<TRIPOS>SUBSTRUCTURE
      1 RES1           1
@<TRIPOS>SET
DONOR_HYDROGENS      STATIC     ATOMS    <user>   **** ""
2 22 23
ATOM$RED        STATIC     ATOMS    COLORGROUP SYSTEM
2 22 23
@<TRIPOS>COMMENT
> <Gold.Version>
2022.3.0

> <Gold.Id.Protein>
unknown|4d1n_clean|pdb

> <Gold.Protein.RotatedTorsions>
[ 6581 6565 6566 6567 ] final  178.25 input  113.40 | X-H torsion
[ 6673 6649 6650 6651 ] final  -99.15 input  128.31 | X-H torsion
[ 8033 8017 8018 8019 ] final   24.46 input   38.97 | X-H torsion
[ 8113 8095 8096 8097 ] final   75.92 input   94.22 | X-H torsion
[ 8173 8159 8160 8161 ] final  -87.92 input   69.09 | X-H torsion
[ 8253 8231 8232 8233 ] final  -94.71 input   84.65 | X-H torsion
[ 9553 9532 9531 9529 ] final -153.96 input   60.02 | X-H torsion
[ 8321 8305 8306 8307 ] final -154.72 input   94.69 | X-H torsion
[ 10193 10177 10178 10179 ] final  -10.57 input   41.54 | X-H torsion
[ 7949 7931 7932 7933 ] final  122.82 input   80.35 | X-H torsion
[ 7894 7881 7882 7883 ] final  171.64 input   97.23 | X-H torsion
[ 7898 7886 7885 7882 ] final  -54.51 input   59.98 | X-H torsion
[ 6813 6795 6796 6797 ] final  125.26 input  114.70 | X-H torsion
[ 27193 6328 6327 6326 ] final  103.28 input    0.00 | X-H torsion
[ 27196 6568 6567 6566 ] final  139.56 input   -0.00 | X-H torsion
[ 27199 7884 7883 7882 ] final -137.24 input   -0.00 | X-H torsion
[ 27202 8020 8019 8018 ] final   58.48 input   -0.00 | X-H torsion
[ 27205 8098 8097 8096 ] final   15.92 input   -0.00 | X-H torsion
[ 27208 8162 8161 8160 ] final  -78.25 input    0.00 | X-H torsion
[ 27213 10092 10091 10090 ] final   14.19 input    0.00 | X-H torsion
[ 27217 10180 10179 10178 ] final   72.80 input    0.00 | X-H torsion
[ 27220 7934 7933 7932 ] final  139.18 input    0.00 | X-H torsion
[ 27222 7726 7725 7724 ] final   72.60 input    0.00 | X-H torsion
[ 27224 7804 7803 7802 ] final  173.93 input    0.00 | X-H torsion

> <Gold.Protein.ActiveResidues>
 ASP403  THR404  LEU406  ILE407  TYR408  ALA410  LYS411  TRP414  GLN425  TRP426 
 SER427  LYS428  LEU429  GLN430  VAL431  PHE432  ASP433  TYR453  SER462  ALA463 
 ILE464 

> <Gold.Protein.RotatedAtoms>
  216.7271   48.2108   17.6168 H   0  0  0  0  0  0  0  0  0  0  0  0  # atno 6581 bound_to 6565
  219.9318   48.4638   19.5092 H   0  0  0  0  0  0  0  0  0  0  0  0  # atno 6673 bound_to 6649
  221.4766   44.9954   19.5280 H   0  0  0  0  0  0  0  0  0  0  0  0  # atno 6813 bound_to 6795
  229.3152   45.5403   20.3211 H   0  0  0  0  0  0  0  0  0  0  0  0  # atno 7894 bound_to 7881
  230.8094   47.6481   19.7976 H   0  0  0  0  0  0  0  0  0  0  0  0  # atno 7898 bound_to 7886
  230.1184   46.6828   17.2949 H   0  0  0  0  0  0  0  0  0  0  0  0  # atno 7949 bound_to 7931
  226.8649   47.3536   14.7528 H   0  0  0  0  0  0  0  0  0  0  0  0  # atno 8033 bound_to 8017
  225.2540   44.9691   11.7673 H   0  0  0  0  0  0  0  0  0  0  0  0  # atno 8113 bound_to 8095
  222.2163   46.1941   11.2807 H   0  0  0  0  0  0  0  0  0  0  0  0  # atno 8173 bound_to 8159
  219.1250   46.1496   11.0586 H   0  0  0  0  0  0  0  0  0  0  0  0  # atno 8253 bound_to 8231
  216.4185   46.2069   10.8901 H   0  0  0  0  0  0  0  0  0  0  0  0  # atno 8321 bound_to 8305
  227.2112   47.0609    8.1026 H   0  0  0  0  0  0  0  0  0  0  0  0  # atno 9553 bound_to 9532
  221.9781   42.5288   10.4983 H   0  0  0  0  0  0  0  0  0  0  0  0  # atno 10193 bound_to 10177
  216.4905   50.5046   17.0281 LP  0  0  0  0  0  0  0  0  0  0  0  0  # atno 27193 bound_to 6328
  215.5066   49.4769   18.0160 LP  0  0  0  0  0  0  0  0  0  0  0  0  # atno 27194 bound_to 6328
  217.1195   47.7553   19.2619 LP  0  0  0  0  0  0  0  0  0  0  0  0  # atno 27195 bound_to 6565
  221.3370   46.9194   19.6805 LP  0  0  0  0  0  0  0  0  0  0  0  0  # atno 27196 bound_to 6568
  220.2656   45.9503   18.7250 LP  0  0  0  0  0  0  0  0  0  0  0  0  # atno 27197 bound_to 6568
  218.3595   48.5459   20.2699 LP  0  0  0  0  0  0  0  0  0  0  0  0  # atno 27198 bound_to 6649
  227.2522   48.3788   16.3788 LP  0  0  0  0  0  0  0  0  0  0  0  0  # atno 27199 bound_to 7884
  227.6635   49.2820   17.7983 LP  0  0  0  0  0  0  0  0  0  0  0  0  # atno 27200 bound_to 7884
  228.0590   46.0783   14.8395 LP  0  0  0  0  0  0  0  0  0  0  0  0  # atno 27201 bound_to 8017
  224.9982   47.9271   14.2307 LP  0  0  0  0  0  0  0  0  0  0  0  0  # atno 27202 bound_to 8020
  223.4983   47.1296   13.8925 LP  0  0  0  0  0  0  0  0  0  0  0  0  # atno 27203 bound_to 8020
  225.2564   46.2985   12.8966 LP  0  0  0  0  0  0  0  0  0  0  0  0  # atno 27204 bound_to 8095
  223.2435   44.1009   11.3132 LP  0  0  0  0  0  0  0  0  0  0  0  0  # atno 27205 bound_to 8098
  221.5219   44.2897   11.2895 LP  0  0  0  0  0  0  0  0  0  0  0  0  # atno 27206 bound_to 8098
  221.7927   47.5833   12.2439 LP  0  0  0  0  0  0  0  0  0  0  0  0  # atno 27207 bound_to 8159
  218.2019   47.9488   11.7168 LP  0  0  0  0  0  0  0  0  0  0  0  0  # atno 27208 bound_to 8162
  219.1949   48.0936   10.3050 LP  0  0  0  0  0  0  0  0  0  0  0  0  # atno 27209 bound_to 8162
  219.1725   44.4666   10.6018 LP  0  0  0  0  0  0  0  0  0  0  0  0  # atno 27210 bound_to 8231
  225.9762   48.1175    8.1813 LP  0  0  0  0  0  0  0  0  0  0  0  0  # atno 27211 bound_to 9532
  227.2395   48.4062    7.1877 LP  0  0  0  0  0  0  0  0  0  0  0  0  # atno 27212 bound_to 9532
  227.2155   44.4346   10.2386 LP  0  0  0  0  0  0  0  0  0  0  0  0  # atno 27213 bound_to 10092
  225.5235   44.2138   10.5362 LP  0  0  0  0  0  0  0  0  0  0  0  0  # atno 27214 bound_to 10092
  215.5942   46.4603    9.3671 LP  0  0  0  0  0  0  0  0  0  0  0  0  # atno 27215 bound_to 8305
  223.0007   41.7471   11.6823 LP  0  0  0  0  0  0  0  0  0  0  0  0  # atno 27216 bound_to 10177
  220.1460   43.2655   10.1172 LP  0  0  0  0  0  0  0  0  0  0  0  0  # atno 27217 bound_to 10180
  218.9786   43.3449   11.3943 LP  0  0  0  0  0  0  0  0  0  0  0  0  # atno 27218 bound_to 10180
  228.3744   46.8280   17.2832 LP  0  0  0  0  0  0  0  0  0  0  0  0  # atno 27219 bound_to 7931
  228.4094   44.1744   14.2977 LP  0  0  0  0  0  0  0  0  0  0  0  0  # atno 27220 bound_to 7934
  229.7866   45.0512   13.7194 LP  0  0  0  0  0  0  0  0  0  0  0  0  # atno 27221 bound_to 7934
  230.2259   43.6949   16.3248 LP  0  0  0  0  0  0  0  0  0  0  0  0  # atno 27222 bound_to 7726
  230.3406   45.1931   17.1863 LP  0  0  0  0  0  0  0  0  0  0  0  0  # atno 27223 bound_to 7726
  226.8710   45.3858   18.6199 LP  0  0  0  0  0  0  0  0  0  0  0  0  # atno 27224 bound_to 7804
  227.0424   43.6636   18.5523 LP  0  0  0  0  0  0  0  0  0  0  0  0  # atno 27225 bound_to 7804
  229.5054   45.2952   18.6024 LP  0  0  0  0  0  0  0  0  0  0  0  0  # atno 27226 bound_to 7881
  230.6377   49.1578   20.3807 LP  0  0  0  0  0  0  0  0  0  0  0  0  # atno 27227 bound_to 7886
  230.3540   48.8523   18.8019 LP  0  0  0  0  0  0  0  0  0  0  0  0  # atno 27228 bound_to 7886

> <Gold.Score>
     Fitness  S(hb_ext) S(vdw_ext)  S(hb_int)    S(int)      intcor
     28.87       5.94      17.21       0.00      -0.73      -0.75

> <Gold.Goldscore.Fitness>
28.8726

> <Gold.Goldscore.Internal.Vdw>
-1.0389

> <Gold.Goldscore.Internal.Torsion>
-0.4472

> <Gold.Goldscore.External.Vdw>
17.2109

> <Gold.Goldscore.Internal.HBond>
0.0000

> <Gold.Goldscore.External.HBond>
5.9389

> <Gold.Goldscore.Internal.Correction>
-0.7548

> <Gold.Goldscore.Hbonds>
donor molecule, donor type, donor heavy atom, donor atom, acceptor molecule, acceptor atom, score
      P1  H  6803  6824       L1    17  0.99

> <Gold.Goldscore.Internal.Vdw.Weighted>
-1.0389

> <Gold.Goldscore.Internal.Torsion.Weighted>
-0.4472

> <Gold.Goldscore.External.Vdw.Weighted>
23.6650

> <Gold.Goldscore.Internal.HBond.Weighted>
0.0000

> <Gold.Goldscore.External.HBond.Weighted>
5.9389

> <Gold.Goldscore.Internal.Correction.Weighted>
-0.7548

> <Gold.Rescore>
     Score     S(PLP)   S(hbond)     S(cho)   S(metal)  DE(clash)   DE(tors)     intcor
     27.77     -23.36       1.75       0.00       0.00       0.00       0.43       ----

> <Gold.PLP.Fitness>
27.7665

> <Gold.PLP.PLP>
-23.3644

> <Gold.PLP.part.hbond>
-2.0000

> <Gold.PLP.part.metal>
0.0000

> <Gold.PLP.part.buried>
-4.6764

> <Gold.PLP.part.nonpolar>
-16.8874

> <Gold.PLP.part.repulsive>
0.3257

> <Gold.PLP.ligand.clash>
0.0000

> <Gold.PLP.ligand.torsion>
0.4270

> <Gold.PLP.Chemscore.Hbond>
1.7520

> <Gold.PLP.Chemscore.CHOScore>
0.0000

> <Gold.PLP.Chemscore.Metal>
0.0000

> <Gold.Chemscore.Hbonds>
donor molecule, donor type, donor heavy atom, donor atom, acceptor molecule, acceptor atom, score
      P1  H  6803  6824       L1    17  1.00
      P1  H  8102  8119       L1     9  0.36

> <Gold.PLP.Chemscore.Internal.Correction>
   9.000000E+99

