#       Name:                CT1002167954
#       Creating user name   hitesit
#       Creation time:       Sun Apr 16 23:01:23 2023


#       File generated by GOLD software.
#

@<TRIPOS>MOLECULE
CT1002167954|ligand_prepared|mol2|1|dock10
    29    30     1
SMALL
NO_CHARGES


@<TRIPOS>ATOM
      1 C1         226.6904  51.6458  13.7182 C.3            1 RES1               0.0000
      2 C2         227.4746  51.8963  15.0224 C.ar           1 RES1               0.0000
      3 C3         227.7306  51.3384  12.6450 C.2            1 RES1               0.0000
      4 C4         225.7367  50.4923  14.0087 C.2            1 RES1               0.0000
      5 C5         225.8481  52.8566  13.2532 C.3            1 RES1               0.0000
      6 C6         228.0085  50.8326  15.7437 C.ar           1 RES1               0.0000
      7 C7         227.6744  53.1834  15.5145 C.ar           1 RES1               0.0000
      8 N8         227.8471  50.0444  12.2303 N.am           1 RES1               0.0000
      9 O9         228.4647  52.2111  12.1981 O.2            1 RES1               0.0000
     10 N10        225.9328  49.3128  13.3392 N.am           1 RES1               0.0000
     11 O11        224.8273  50.5887  14.8236 O.2            1 RES1               0.0000
     12 C12        224.9256  52.5490  12.0842 C.3            1 RES1               0.0000
     13 C13        228.7188  51.0478  16.9130 C.ar           1 RES1               0.0000
     14 C14        228.3849  53.3964  16.6843 C.ar           1 RES1               0.0000
     15 C15        226.9635  49.0269  12.4859 C.2            1 RES1               0.0000
     16 C16        228.9079  52.3297  17.3838 C.ar           1 RES1               0.0000
     17 O17        227.1031  47.9244  11.9641 O.2            1 RES1               0.0000
     18 H18        225.2429  53.2106  14.0969 H              1 RES1               0.0000
     19 H19        226.5266  53.6683  12.9634 H              1 RES1               0.0000
     20 H20        227.8678  49.8167  15.3899 H              1 RES1               0.0000
     21 H21        227.2711  54.0376  14.9814 H              1 RES1               0.0000
     22 H22        228.6671  49.8119  11.6791 H              1 RES1               0.0000
     23 H23        225.2468  48.5802  13.4909 H              1 RES1               0.0000
     24 H24        224.3580  53.4320  11.7981 H              1 RES1               0.0000
     25 H25        225.4963  52.2180  11.2191 H              1 RES1               0.0000
     26 H26        224.2203  51.7629  12.3459 H              1 RES1               0.0000
     27 H27        229.1272  50.2049  17.4606 H              1 RES1               0.0000
     28 H28        228.5307  54.4069  17.0515 H              1 RES1               0.0000
     29 H29        229.4648  52.4981  18.2997 H              1 RES1               0.0000
@<TRIPOS>BOND
    1    1    2 1     
    2    1    3 1     
    3    1    4 1     
    4    1    5 1     
    5    2    6 ar    
    6    2    7 ar    
    7    3    8 1     
    8    3    9 2     
    9    4   10 1     
   10    4   11 2     
   11    5   12 1     
   12    5   18 1     
   13    5   19 1     
   14    6   13 ar    
   15    6   20 1     
   16    7   14 ar    
   17    7   21 1     
   18    8   15 1     
   19    8   22 1     
   20   10   15 1     
   21   10   23 1     
   22   12   24 1     
   23   12   25 1     
   24   12   26 1     
   25   13   16 ar    
   26   13   27 1     
   27   14   16 ar    
   28   14   28 1     
   29   15   17 2     
   30   16   29 1     
@<TRIPOS>SUBSTRUCTURE
      1 RES1           1
@<TRIPOS>SET
DONOR_HYDROGENS      STATIC     ATOMS    <user>   **** ""
2 22 23
ATOM$RED        STATIC     ATOMS    COLORGROUP SYSTEM
2 22 23
@<TRIPOS>COMMENT
> <Gold.Version>
2022.3.0

> <Gold.Id.Protein>
unknown|4d1n_clean|pdb

> <Gold.Protein.RotatedTorsions>
[ 6581 6565 6566 6567 ] final  142.38 input  113.40 | X-H torsion
[ 6673 6649 6650 6651 ] final   92.64 input  128.31 | X-H torsion
[ 8033 8017 8018 8019 ] final  -11.77 input   38.97 | X-H torsion
[ 8113 8095 8096 8097 ] final -170.66 input   94.22 | X-H torsion
[ 8173 8159 8160 8161 ] final  162.41 input   69.09 | X-H torsion
[ 8253 8231 8232 8233 ] final  158.67 input   84.65 | X-H torsion
[ 9553 9532 9531 9529 ] final -148.66 input   60.02 | X-H torsion
[ 8321 8305 8306 8307 ] final  124.28 input   94.69 | X-H torsion
[ 10193 10177 10178 10179 ] final   -4.89 input   41.54 | X-H torsion
[ 7949 7931 7932 7933 ] final -171.13 input   80.35 | X-H torsion
[ 7894 7881 7882 7883 ] final   86.36 input   97.23 | X-H torsion
[ 7898 7886 7885 7882 ] final  -77.65 input   59.98 | X-H torsion
[ 6813 6795 6796 6797 ] final -145.35 input  114.70 | X-H torsion
[ 27193 6328 6327 6326 ] final   82.89 input    0.00 | X-H torsion
[ 27196 6568 6567 6566 ] final  -26.10 input   -0.00 | X-H torsion
[ 27199 7884 7883 7882 ] final   87.58 input   -0.00 | X-H torsion
[ 27202 8020 8019 8018 ] final -104.48 input   -0.00 | X-H torsion
[ 27205 8098 8097 8096 ] final   94.41 input   -0.00 | X-H torsion
[ 27208 8162 8161 8160 ] final -153.56 input    0.00 | X-H torsion
[ 27213 10092 10091 10090 ] final -172.94 input    0.00 | X-H torsion
[ 27217 10180 10179 10178 ] final  107.44 input    0.00 | X-H torsion
[ 27220 7934 7933 7932 ] final   87.76 input    0.00 | X-H torsion
[ 27222 7726 7725 7724 ] final -155.74 input    0.00 | X-H torsion
[ 27224 7804 7803 7802 ] final   64.12 input    0.00 | X-H torsion

> <Gold.Protein.ActiveResidues>
 ASP403  THR404  LEU406  ILE407  TYR408  ALA410  LYS411  TRP414  GLN425  TRP426 
 SER427  LYS428  LEU429  GLN430  VAL431  PHE432  ASP433  TYR453  SER462  ALA463 
 ILE464 

> <Gold.Protein.RotatedAtoms>
  216.7904   48.6713   17.9092 H   0  0  0  0  0  0  0  0  0  0  0  0  # atno 6581 bound_to 6565
  218.3841   48.7207   20.3105 H   0  0  0  0  0  0  0  0  0  0  0  0  # atno 6673 bound_to 6649
  221.7078   44.0330   18.7864 H   0  0  0  0  0  0  0  0  0  0  0  0  # atno 6813 bound_to 6795
  230.1612   45.8720   19.5449 H   0  0  0  0  0  0  0  0  0  0  0  0  # atno 7894 bound_to 7881
  230.8564   47.7896   20.1424 H   0  0  0  0  0  0  0  0  0  0  0  0  # atno 7898 bound_to 7886
  229.6575   47.5216   17.4446 H   0  0  0  0  0  0  0  0  0  0  0  0  # atno 7949 bound_to 7931
  227.1322   47.3359   14.2706 H   0  0  0  0  0  0  0  0  0  0  0  0  # atno 8033 bound_to 8017
  225.8464   46.2583   12.1436 H   0  0  0  0  0  0  0  0  0  0  0  0  # atno 8113 bound_to 8095
  222.3021   46.7859   12.5790 H   0  0  0  0  0  0  0  0  0  0  0  0  # atno 8173 bound_to 8159
  219.7382   45.2346   10.1814 H   0  0  0  0  0  0  0  0  0  0  0  0  # atno 8253 bound_to 8231
  216.0479   47.1802   10.3906 H   0  0  0  0  0  0  0  0  0  0  0  0  # atno 8321 bound_to 8305
  227.2763   47.0796    8.0488 H   0  0  0  0  0  0  0  0  0  0  0  0  # atno 9553 bound_to 9532
  221.9588   42.5878   10.5604 H   0  0  0  0  0  0  0  0  0  0  0  0  # atno 10193 bound_to 10177
  216.3125   50.3771   16.8134 LP  0  0  0  0  0  0  0  0  0  0  0  0  # atno 27193 bound_to 6328
  215.6846   49.6045   18.2308 LP  0  0  0  0  0  0  0  0  0  0  0  0  # atno 27194 bound_to 6328
  217.0585   47.3115   18.9801 LP  0  0  0  0  0  0  0  0  0  0  0  0  # atno 27195 bound_to 6565
  220.3666   46.0487   18.5610 LP  0  0  0  0  0  0  0  0  0  0  0  0  # atno 27196 bound_to 6568
  221.2361   46.8210   19.8445 LP  0  0  0  0  0  0  0  0  0  0  0  0  # atno 27197 bound_to 6568
  219.8679   48.2955   19.4889 LP  0  0  0  0  0  0  0  0  0  0  0  0  # atno 27198 bound_to 6649
  228.0793   49.3960   17.2982 LP  0  0  0  0  0  0  0  0  0  0  0  0  # atno 27199 bound_to 7884
  226.8364   48.2648   16.8790 LP  0  0  0  0  0  0  0  0  0  0  0  0  # atno 27200 bound_to 7884
  227.7993   46.0955   15.3080 LP  0  0  0  0  0  0  0  0  0  0  0  0  # atno 27201 bound_to 8017
  223.5443   47.0277   14.1234 LP  0  0  0  0  0  0  0  0  0  0  0  0  # atno 27202 bound_to 8020
  224.9522   48.0290   13.9998 LP  0  0  0  0  0  0  0  0  0  0  0  0  # atno 27203 bound_to 8020
  224.6719   45.0266   12.5253 LP  0  0  0  0  0  0  0  0  0  0  0  0  # atno 27204 bound_to 8095
  222.5322   44.0789   12.1464 LP  0  0  0  0  0  0  0  0  0  0  0  0  # atno 27205 bound_to 8098
  222.2332   44.3118   10.4564 LP  0  0  0  0  0  0  0  0  0  0  0  0  # atno 27206 bound_to 8098
  221.7075   46.9955   10.9543 LP  0  0  0  0  0  0  0  0  0  0  0  0  # atno 27207 bound_to 8159
  217.9376   47.7317   10.7155 LP  0  0  0  0  0  0  0  0  0  0  0  0  # atno 27208 bound_to 8162
  219.4593   48.3107   11.3064 LP  0  0  0  0  0  0  0  0  0  0  0  0  # atno 27209 bound_to 8162
  218.5673   45.3696   11.4674 LP  0  0  0  0  0  0  0  0  0  0  0  0  # atno 27210 bound_to 8231
  225.9785   48.0445    8.2287 LP  0  0  0  0  0  0  0  0  0  0  0  0  # atno 27211 bound_to 9532
  227.1716   48.4604    7.1944 LP  0  0  0  0  0  0  0  0  0  0  0  0  # atno 27212 bound_to 9532
  225.5130   44.2035   10.4295 LP  0  0  0  0  0  0  0  0  0  0  0  0  # atno 27213 bound_to 10092
  227.2260   44.4449   10.3453 LP  0  0  0  0  0  0  0  0  0  0  0  0  # atno 27214 bound_to 10092
  215.9529   45.5182    9.8506 LP  0  0  0  0  0  0  0  0  0  0  0  0  # atno 27215 bound_to 8305
  223.0195   41.6896   11.6219 LP  0  0  0  0  0  0  0  0  0  0  0  0  # atno 27216 bound_to 10177
  219.6820   43.1886    9.9060 LP  0  0  0  0  0  0  0  0  0  0  0  0  # atno 27217 bound_to 10180
  219.4426   43.4217   11.6055 LP  0  0  0  0  0  0  0  0  0  0  0  0  # atno 27218 bound_to 10180
  228.8210   46.0153   17.1381 LP  0  0  0  0  0  0  0  0  0  0  0  0  # atno 27219 bound_to 7931
  228.9863   44.2276   14.7762 LP  0  0  0  0  0  0  0  0  0  0  0  0  # atno 27220 bound_to 7934
  229.2097   44.9979   13.2410 LP  0  0  0  0  0  0  0  0  0  0  0  0  # atno 27221 bound_to 7934
  229.7912   44.7883   17.3795 LP  0  0  0  0  0  0  0  0  0  0  0  0  # atno 27222 bound_to 7726
  230.7752   44.0997   16.1315 LP  0  0  0  0  0  0  0  0  0  0  0  0  # atno 27223 bound_to 7726
  226.7211   44.1763   19.3432 LP  0  0  0  0  0  0  0  0  0  0  0  0  # atno 27224 bound_to 7804
  227.1923   44.8730   17.8290 LP  0  0  0  0  0  0  0  0  0  0  0  0  # atno 27225 bound_to 7804
  228.6766   44.9703   19.3628 LP  0  0  0  0  0  0  0  0  0  0  0  0  # atno 27226 bound_to 7881
  230.5306   49.3835   20.0968 LP  0  0  0  0  0  0  0  0  0  0  0  0  # atno 27227 bound_to 7886
  230.4138   48.4842   18.7387 LP  0  0  0  0  0  0  0  0  0  0  0  0  # atno 27228 bound_to 7886

> <Gold.Score>
     Fitness  S(hb_ext) S(vdw_ext)  S(hb_int)    S(int)      intcor
     21.58       2.80      13.69       0.00      -0.04      -0.75

> <Gold.Goldscore.Fitness>
21.5809

> <Gold.Goldscore.Internal.Vdw>
-0.3264

> <Gold.Goldscore.Internal.Torsion>
-0.4717

> <Gold.Goldscore.External.Vdw>
13.6928

> <Gold.Goldscore.Internal.HBond>
0.0000

> <Gold.Goldscore.External.HBond>
2.7968

> <Gold.Goldscore.Internal.Correction>
-0.7548

> <Gold.Goldscore.Hbonds>
donor molecule, donor type, donor heavy atom, donor atom, acceptor molecule, acceptor atom, score
      P1  H  6803  6824       L1    11  0.05
      P1  H  8095  8113       L1    17  0.26
      L1  H    10    23       P1  8020  0.98

> <Gold.Goldscore.Internal.Vdw.Weighted>
-0.3264

> <Gold.Goldscore.Internal.Torsion.Weighted>
-0.4717

> <Gold.Goldscore.External.Vdw.Weighted>
18.8275

> <Gold.Goldscore.Internal.HBond.Weighted>
0.0000

> <Gold.Goldscore.External.HBond.Weighted>
2.7968

> <Gold.Goldscore.Internal.Correction.Weighted>
-0.7548

> <Gold.Rescore>
     Score     S(PLP)   S(hbond)     S(cho)   S(metal)  DE(clash)   DE(tors)     intcor
     23.63     -16.01       2.58       0.00       0.00       0.00       0.06       ----

> <Gold.PLP.Fitness>
23.6345

> <Gold.PLP.PLP>
-16.0132

> <Gold.PLP.part.hbond>
-3.8640

> <Gold.PLP.part.metal>
0.0000

> <Gold.PLP.part.buried>
-2.6680

> <Gold.PLP.part.nonpolar>
-10.7307

> <Gold.PLP.part.repulsive>
0.4378

> <Gold.PLP.ligand.clash>
0.0000

> <Gold.PLP.ligand.torsion>
0.0594

> <Gold.PLP.Chemscore.Hbond>
2.5800

> <Gold.PLP.Chemscore.CHOScore>
0.0000

> <Gold.PLP.Chemscore.Metal>
0.0000

> <Gold.Chemscore.Hbonds>
donor molecule, donor type, donor heavy atom, donor atom, acceptor molecule, acceptor atom, score
      L1  H    10    23       P1  8020  1.00
      P1  H  6803  6824       L1    11  1.00
      P1  H  8095  8113       L1    17  0.96

> <Gold.PLP.Chemscore.Internal.Correction>
   9.000000E+99

