#       Name:                CT1002167954
#       Creating user name   hitesit
#       Creation time:       Sun Apr 16 23:01:23 2023


#       File generated by GOLD software.
#

@<TRIPOS>MOLECULE
CT1002167954|ligand_prepared|mol2|1|dock9
    29    30     1
SMALL
NO_CHARGES


@<TRIPOS>ATOM
      1 C1         227.6457  50.6575  12.3120 C.3            1 RES1               0.0000
      2 C2         228.1775  49.6109  11.3116 C.ar           1 RES1               0.0000
      3 C3         226.1563  50.8121  12.0190 C.2            1 RES1               0.0000
      4 C4         227.9531  50.1130  13.7026 C.2            1 RES1               0.0000
      5 C5         228.3184  52.0439  12.1823 C.3            1 RES1               0.0000
      6 C6         227.6811  48.3108  11.3154 C.ar           1 RES1               0.0000
      7 C7         229.1605  49.9308  10.3789 C.ar           1 RES1               0.0000
      8 N8         225.2777  50.2595  12.9036 N.am           1 RES1               0.0000
      9 O9         225.7593  51.3760  11.0068 O.2            1 RES1               0.0000
     10 N10        226.8969  49.7761  14.5081 N.am           1 RES1               0.0000
     11 O11        229.1005  49.9571  14.1018 O.2            1 RES1               0.0000
     12 C12        227.8278  53.0611  13.2006 C.3            1 RES1               0.0000
     13 C13        228.1483  47.3655  10.4174 C.ar           1 RES1               0.0000
     14 C14        229.6266  48.9839   9.4819 C.ar           1 RES1               0.0000
     15 C15        225.5737  49.7958  14.1602 C.2            1 RES1               0.0000
     16 C16        229.1209  47.7014   9.4999 C.ar           1 RES1               0.0000
     17 O17        224.6846  49.4258  14.9216 O.2            1 RES1               0.0000
     18 H18        229.4024  51.9227  12.2984 H              1 RES1               0.0000
     19 H19        228.1307  52.4346  11.1745 H              1 RES1               0.0000
     20 H20        226.9172  48.0274  12.0317 H              1 RES1               0.0000
     21 H21        229.5737  50.9333  10.3472 H              1 RES1               0.0000
     22 H22        224.3111  50.1838  12.6030 H              1 RES1               0.0000
     23 H23        227.1175  49.4837  15.4547 H              1 RES1               0.0000
     24 H24        228.3315  54.0159  13.0655 H              1 RES1               0.0000
     25 H25        226.7572  53.2251  13.0970 H              1 RES1               0.0000
     26 H26        228.0213  52.7162  14.2142 H              1 RES1               0.0000
     27 H27        227.7481  46.3572  10.4365 H              1 RES1               0.0000
     28 H28        230.3926  49.2525   8.7620 H              1 RES1               0.0000
     29 H29        229.4865  46.9608   8.7963 H              1 RES1               0.0000
@<TRIPOS>BOND
    1    1    2 1     
    2    1    3 1     
    3    1    4 1     
    4    1    5 1     
    5    2    6 ar    
    6    2    7 ar    
    7    3    8 1     
    8    3    9 2     
    9    4   10 1     
   10    4   11 2     
   11    5   12 1     
   12    5   18 1     
   13    5   19 1     
   14    6   13 ar    
   15    6   20 1     
   16    7   14 ar    
   17    7   21 1     
   18    8   15 1     
   19    8   22 1     
   20   10   15 1     
   21   10   23 1     
   22   12   24 1     
   23   12   25 1     
   24   12   26 1     
   25   13   16 ar    
   26   13   27 1     
   27   14   16 ar    
   28   14   28 1     
   29   15   17 2     
   30   16   29 1     
@<TRIPOS>SUBSTRUCTURE
      1 RES1           1
@<TRIPOS>SET
DONOR_HYDROGENS      STATIC     ATOMS    <user>   **** ""
2 22 23
ATOM$RED        STATIC     ATOMS    COLORGROUP SYSTEM
2 22 23
@<TRIPOS>COMMENT
> <Gold.Version>
2022.3.0

> <Gold.Id.Protein>
unknown|4d1n_clean|pdb

> <Gold.Protein.RotatedTorsions>
[ 6581 6565 6566 6567 ] final   94.61 input  113.40 | X-H torsion
[ 6673 6649 6650 6651 ] final -101.64 input  128.31 | X-H torsion
[ 8033 8017 8018 8019 ] final -113.10 input   38.97 | X-H torsion
[ 8113 8095 8096 8097 ] final -103.24 input   94.22 | X-H torsion
[ 8173 8159 8160 8161 ] final  111.32 input   69.09 | X-H torsion
[ 8253 8231 8232 8233 ] final  -42.99 input   84.65 | X-H torsion
[ 9553 9532 9531 9529 ] final  148.29 input   60.02 | X-H torsion
[ 8321 8305 8306 8307 ] final -150.70 input   94.69 | X-H torsion
[ 10193 10177 10178 10179 ] final  130.29 input   41.54 | X-H torsion
[ 7949 7931 7932 7933 ] final   60.81 input   80.35 | X-H torsion
[ 7894 7881 7882 7883 ] final   53.78 input   97.23 | X-H torsion
[ 7898 7886 7885 7882 ] final  109.69 input   59.98 | X-H torsion
[ 6813 6795 6796 6797 ] final  -45.69 input  114.70 | X-H torsion
[ 27193 6328 6327 6326 ] final -131.72 input    0.00 | X-H torsion
[ 27196 6568 6567 6566 ] final   79.18 input   -0.00 | X-H torsion
[ 27199 7884 7883 7882 ] final   21.00 input   -0.00 | X-H torsion
[ 27202 8020 8019 8018 ] final -178.90 input   -0.00 | X-H torsion
[ 27205 8098 8097 8096 ] final   56.21 input   -0.00 | X-H torsion
[ 27208 8162 8161 8160 ] final  100.27 input    0.00 | X-H torsion
[ 27213 10092 10091 10090 ] final  126.53 input    0.00 | X-H torsion
[ 27217 10180 10179 10178 ] final  153.97 input    0.00 | X-H torsion
[ 27220 7934 7933 7932 ] final -128.83 input    0.00 | X-H torsion
[ 27222 7726 7725 7724 ] final   11.74 input    0.00 | X-H torsion
[ 27224 7804 7803 7802 ] final  107.75 input    0.00 | X-H torsion

> <Gold.Protein.ActiveResidues>
 ASP403  THR404  LEU406  ILE407  TYR408  ALA410  LYS411  TRP414  GLN425  TRP426 
 SER427  LYS428  LEU429  GLN430  VAL431  PHE432  ASP433  TYR453  SER462  ALA463 
 ILE464 

> <Gold.Protein.RotatedAtoms>
  216.9554   48.8605   18.5864 H   0  0  0  0  0  0  0  0  0  0  0  0  # atno 6581 bound_to 6565
  219.9363   48.5014   19.5164 H   0  0  0  0  0  0  0  0  0  0  0  0  # atno 6673 bound_to 6649
  221.5237   43.2795   19.8834 H   0  0  0  0  0  0  0  0  0  0  0  0  # atno 6813 bound_to 6795
  230.1282   45.7542   19.0653 H   0  0  0  0  0  0  0  0  0  0  0  0  # atno 7894 bound_to 7881
  230.3526   49.3709   19.2825 H   0  0  0  0  0  0  0  0  0  0  0  0  # atno 7898 bound_to 7886
  229.5856   45.9557   17.1340 H   0  0  0  0  0  0  0  0  0  0  0  0  # atno 7949 bound_to 7931
  228.0823   46.3455   14.2654 H   0  0  0  0  0  0  0  0  0  0  0  0  # atno 8033 bound_to 8017
  225.2527   46.2977   12.9155 H   0  0  0  0  0  0  0  0  0  0  0  0  # atno 8113 bound_to 8095
  221.9453   47.4364   12.4448 H   0  0  0  0  0  0  0  0  0  0  0  0  # atno 8173 bound_to 8159
  218.6619   45.6834   11.4521 H   0  0  0  0  0  0  0  0  0  0  0  0  # atno 8253 bound_to 8231
  216.4182   46.1458   10.8776 H   0  0  0  0  0  0  0  0  0  0  0  0  # atno 8321 bound_to 8305
  226.4112   47.2931    8.4541 H   0  0  0  0  0  0  0  0  0  0  0  0  # atno 9553 bound_to 9532
  222.7514   42.2088   11.9439 H   0  0  0  0  0  0  0  0  0  0  0  0  # atno 10193 bound_to 10177
  216.0623   49.9201   18.3829 LP  0  0  0  0  0  0  0  0  0  0  0  0  # atno 27193 bound_to 6328
  215.9349   50.0614   16.6613 LP  0  0  0  0  0  0  0  0  0  0  0  0  # atno 27194 bound_to 6328
  216.8995   47.1292   18.3276 LP  0  0  0  0  0  0  0  0  0  0  0  0  # atno 27195 bound_to 6565
  221.3616   46.9666   18.8112 LP  0  0  0  0  0  0  0  0  0  0  0  0  # atno 27196 bound_to 6568
  220.2410   45.9031   19.5943 LP  0  0  0  0  0  0  0  0  0  0  0  0  # atno 27197 bound_to 6568
  218.3551   48.5093   20.2629 LP  0  0  0  0  0  0  0  0  0  0  0  0  # atno 27198 bound_to 6649
  227.3988   49.1209   17.9023 LP  0  0  0  0  0  0  0  0  0  0  0  0  # atno 27199 bound_to 7884
  227.5169   48.5399   16.2749 LP  0  0  0  0  0  0  0  0  0  0  0  0  # atno 27200 bound_to 7884
  226.8762   47.0579   15.3131 LP  0  0  0  0  0  0  0  0  0  0  0  0  # atno 27201 bound_to 8017
  223.8064   47.6566   13.3279 LP  0  0  0  0  0  0  0  0  0  0  0  0  # atno 27202 bound_to 8020
  224.6901   47.4001   14.7953 LP  0  0  0  0  0  0  0  0  0  0  0  0  # atno 27203 bound_to 8020
  225.2577   44.9877   11.7638 LP  0  0  0  0  0  0  0  0  0  0  0  0  # atno 27204 bound_to 8095
  223.0245   44.0589   11.8666 LP  0  0  0  0  0  0  0  0  0  0  0  0  # atno 27205 bound_to 8098
  221.7408   44.3317   10.7362 LP  0  0  0  0  0  0  0  0  0  0  0  0  # atno 27206 bound_to 8098
  222.0619   46.3494   11.0876 LP  0  0  0  0  0  0  0  0  0  0  0  0  # atno 27207 bound_to 8159
  219.2117   48.1009   10.3179 LP  0  0  0  0  0  0  0  0  0  0  0  0  # atno 27208 bound_to 8162
  218.1851   47.9416   11.7039 LP  0  0  0  0  0  0  0  0  0  0  0  0  # atno 27209 bound_to 8162
  219.6295   44.9267   10.2135 LP  0  0  0  0  0  0  0  0  0  0  0  0  # atno 27210 bound_to 8231
  226.3770   48.6565    7.5666 LP  0  0  0  0  0  0  0  0  0  0  0  0  # atno 27211 bound_to 9532
  227.6443   47.6335    7.4484 LP  0  0  0  0  0  0  0  0  0  0  0  0  # atno 27212 bound_to 9532
  225.9204   44.1990    9.6576 LP  0  0  0  0  0  0  0  0  0  0  0  0  # atno 27213 bound_to 10092
  226.8186   44.4494   11.1172 LP  0  0  0  0  0  0  0  0  0  0  0  0  # atno 27214 bound_to 10092
  215.5945   46.5194    9.3792 LP  0  0  0  0  0  0  0  0  0  0  0  0  # atno 27215 bound_to 8305
  222.2482   42.0584   10.2756 LP  0  0  0  0  0  0  0  0  0  0  0  0  # atno 27216 bound_to 10177
  219.0250   43.1533   10.0938 LP  0  0  0  0  0  0  0  0  0  0  0  0  # atno 27217 bound_to 10180
  220.0995   43.4571   11.4178 LP  0  0  0  0  0  0  0  0  0  0  0  0  # atno 27218 bound_to 10180
  228.8907   47.5326   17.4391 LP  0  0  0  0  0  0  0  0  0  0  0  0  # atno 27219 bound_to 7931
  228.7157   44.7708   13.2478 LP  0  0  0  0  0  0  0  0  0  0  0  0  # atno 27220 bound_to 7934
  229.4803   44.4547   14.7694 LP  0  0  0  0  0  0  0  0  0  0  0  0  # atno 27221 bound_to 7934
  230.8750   44.2588   16.1510 LP  0  0  0  0  0  0  0  0  0  0  0  0  # atno 27222 bound_to 7726
  229.6914   44.6293   17.3601 LP  0  0  0  0  0  0  0  0  0  0  0  0  # atno 27223 bound_to 7726
  226.6648   44.8175   19.3470 LP  0  0  0  0  0  0  0  0  0  0  0  0  # atno 27224 bound_to 7804
  227.2486   44.2319   17.8252 LP  0  0  0  0  0  0  0  0  0  0  0  0  # atno 27225 bound_to 7804
  228.7089   45.0857   19.8327 LP  0  0  0  0  0  0  0  0  0  0  0  0  # atno 27226 bound_to 7881
  230.6392   47.7767   19.1234 LP  0  0  0  0  0  0  0  0  0  0  0  0  # atno 27227 bound_to 7886
  230.8124   48.4991   20.5777 LP  0  0  0  0  0  0  0  0  0  0  0  0  # atno 27228 bound_to 7886

> <Gold.Score>
     Fitness  S(hb_ext) S(vdw_ext)  S(hb_int)    S(int)      intcor
     26.94       1.95      18.23       0.00      -0.07      -0.75

> <Gold.Goldscore.Fitness>
26.9410

> <Gold.Goldscore.Internal.Vdw>
-0.4566

> <Gold.Goldscore.Internal.Torsion>
-0.3728

> <Gold.Goldscore.External.Vdw>
18.2280

> <Gold.Goldscore.Internal.HBond>
0.0000

> <Gold.Goldscore.External.HBond>
1.9522

> <Gold.Goldscore.Internal.Correction>
-0.7548

> <Gold.Goldscore.Hbonds>
donor molecule, donor type, donor heavy atom, donor atom, acceptor molecule, acceptor atom, score
      P1  H  6803  6824       L1    17  0.01
      P1  H  8102  8119       L1     9  0.01
      L1  H    10    23       P1  7884  0.93

> <Gold.Goldscore.Internal.Vdw.Weighted>
-0.4566

> <Gold.Goldscore.Internal.Torsion.Weighted>
-0.3728

> <Gold.Goldscore.External.Vdw.Weighted>
25.0636

> <Gold.Goldscore.Internal.HBond.Weighted>
0.0000

> <Gold.Goldscore.External.HBond.Weighted>
1.9522

> <Gold.Goldscore.Internal.Correction.Weighted>
-0.7548

> <Gold.Rescore>
     Score     S(PLP)   S(hbond)     S(cho)   S(metal)  DE(clash)   DE(tors)     intcor
     29.27     -24.41       1.72       0.00       0.00       0.00       0.15       ----

> <Gold.PLP.Fitness>
29.2677

> <Gold.PLP.PLP>
-24.4094

> <Gold.PLP.part.hbond>
-2.0000

> <Gold.PLP.part.metal>
0.0000

> <Gold.PLP.part.buried>
-4.7775

> <Gold.PLP.part.nonpolar>
-18.1697

> <Gold.PLP.part.repulsive>
0.3739

> <Gold.PLP.ligand.clash>
0.0000

> <Gold.PLP.ligand.torsion>
0.1508

> <Gold.PLP.Chemscore.Hbond>
1.7200

> <Gold.PLP.Chemscore.CHOScore>
0.0000

> <Gold.PLP.Chemscore.Metal>
0.0000

> <Gold.Chemscore.Hbonds>
donor molecule, donor type, donor heavy atom, donor atom, acceptor molecule, acceptor atom, score
      L1  H    10    23       P1  7884  0.86
      P1  H  6803  6824       L1    17  0.38
      P1  H  8102  8119       L1     9  0.80

> <Gold.PLP.Chemscore.Internal.Correction>
   9.000000E+99

