#       Name:                CT1002167954
#       Creating user name   hitesit
#       Creation time:       Sun Apr 16 23:01:20 2023


#       File generated by GOLD software.
#

@<TRIPOS>MOLECULE
CT1002167954|ligand_prepared|mol2|1|dock3
    29    30     1
SMALL
NO_CHARGES


@<TRIPOS>ATOM
      1 C1         224.6977  51.5546  12.9382 C.3            1 RES1               0.0000
      2 C2         223.2964  51.1789  12.4149 C.ar           1 RES1               0.0000
      3 C3         224.9581  50.6595  14.1462 C.2            1 RES1               0.0000
      4 C4         225.6609  51.3295  11.7779 C.2            1 RES1               0.0000
      5 C5         224.8233  53.0301  13.3840 C.3            1 RES1               0.0000
      6 C6         222.7282  49.9485  12.7314 C.ar           1 RES1               0.0000
      7 C7         222.5600  52.0516  11.6182 C.ar           1 RES1               0.0000
      8 N8         225.8428  49.6330  13.9929 N.am           1 RES1               0.0000
      9 O9         224.3666  50.8277  15.2055 O.2            1 RES1               0.0000
     10 N10        226.6018  50.3417  11.9069 N.am           1 RES1               0.0000
     11 O11        225.6029  51.9876  10.7465 O.2            1 RES1               0.0000
     12 C12        226.1063  53.3348  14.1411 C.3            1 RES1               0.0000
     13 C13        221.4682  49.6043  12.2707 C.ar           1 RES1               0.0000
     14 C14        221.3002  51.7052  11.1584 C.ar           1 RES1               0.0000
     15 C15        226.7166  49.4628  12.9493 C.2            1 RES1               0.0000
     16 C16        220.7532  50.4824  11.4844 C.ar           1 RES1               0.0000
     17 O17        227.5546  48.5658  12.9683 O.2            1 RES1               0.0000
     18 H18        224.7762  53.6725  12.4960 H              1 RES1               0.0000
     19 H19        223.9680  53.2796  14.0240 H              1 RES1               0.0000
     20 H20        223.2769  49.2436  13.3470 H              1 RES1               0.0000
     21 H21        222.9707  53.0185  11.3483 H              1 RES1               0.0000
     22 H22        225.8558  48.9265  14.7216 H              1 RES1               0.0000
     23 H23        227.2795  50.2534  11.1563 H              1 RES1               0.0000
     24 H24        226.1437  54.3829  14.4304 H              1 RES1               0.0000
     25 H25        226.1740  52.7314  15.0439 H              1 RES1               0.0000
     26 H26        226.9775  53.1219  13.5250 H              1 RES1               0.0000
     27 H27        221.0428  48.6401  12.5290 H              1 RES1               0.0000
     28 H28        220.7413  52.3992  10.5393 H              1 RES1               0.0000
     29 H29        219.7660  50.2126  11.1240 H              1 RES1               0.0000
@<TRIPOS>BOND
    1    1    2 1     
    2    1    3 1     
    3    1    4 1     
    4    1    5 1     
    5    2    6 ar    
    6    2    7 ar    
    7    3    8 1     
    8    3    9 2     
    9    4   10 1     
   10    4   11 2     
   11    5   12 1     
   12    5   18 1     
   13    5   19 1     
   14    6   13 ar    
   15    6   20 1     
   16    7   14 ar    
   17    7   21 1     
   18    8   15 1     
   19    8   22 1     
   20   10   15 1     
   21   10   23 1     
   22   12   24 1     
   23   12   25 1     
   24   12   26 1     
   25   13   16 ar    
   26   13   27 1     
   27   14   16 ar    
   28   14   28 1     
   29   15   17 2     
   30   16   29 1     
@<TRIPOS>SUBSTRUCTURE
      1 RES1           1
@<TRIPOS>SET
DONOR_HYDROGENS      STATIC     ATOMS    <user>   **** ""
2 22 23
ATOM$RED        STATIC     ATOMS    COLORGROUP SYSTEM
2 22 23
@<TRIPOS>COMMENT
> <Gold.Version>
2022.3.0

> <Gold.Id.Protein>
unknown|4d1n_clean|pdb

> <Gold.Protein.RotatedTorsions>
[ 6581 6565 6566 6567 ] final   73.97 input  113.40 | X-H torsion
[ 6673 6649 6650 6651 ] final  153.95 input  128.31 | X-H torsion
[ 8033 8017 8018 8019 ] final  -41.35 input   38.97 | X-H torsion
[ 8113 8095 8096 8097 ] final  168.51 input   94.22 | X-H torsion
[ 8173 8159 8160 8161 ] final -133.43 input   69.09 | X-H torsion
[ 8253 8231 8232 8233 ] final   69.74 input   84.65 | X-H torsion
[ 9553 9532 9531 9529 ] final  141.96 input   60.02 | X-H torsion
[ 8321 8305 8306 8307 ] final   94.07 input   94.69 | X-H torsion
[ 10193 10177 10178 10179 ] final  121.18 input   41.54 | X-H torsion
[ 7949 7931 7932 7933 ] final -167.77 input   80.35 | X-H torsion
[ 7894 7881 7882 7883 ] final  178.07 input   97.23 | X-H torsion
[ 7898 7886 7885 7882 ] final  128.17 input   59.98 | X-H torsion
[ 6813 6795 6796 6797 ] final  -22.47 input  114.70 | X-H torsion
[ 27193 6328 6327 6326 ] final   64.10 input    0.00 | X-H torsion
[ 27196 6568 6567 6566 ] final -160.93 input   -0.00 | X-H torsion
[ 27199 7884 7883 7882 ] final   70.61 input   -0.00 | X-H torsion
[ 27202 8020 8019 8018 ] final   95.71 input   -0.00 | X-H torsion
[ 27205 8098 8097 8096 ] final -112.93 input   -0.00 | X-H torsion
[ 27208 8162 8161 8160 ] final   65.59 input    0.00 | X-H torsion
[ 27213 10092 10091 10090 ] final  -46.63 input    0.00 | X-H torsion
[ 27217 10180 10179 10178 ] final   29.14 input    0.00 | X-H torsion
[ 27220 7934 7933 7932 ] final  -86.27 input    0.00 | X-H torsion
[ 27222 7726 7725 7724 ] final  125.94 input    0.00 | X-H torsion
[ 27224 7804 7803 7802 ] final   95.86 input    0.00 | X-H torsion

> <Gold.Protein.ActiveResidues>
 ASP403  THR404  LEU406  ILE407  TYR408  ALA410  LYS411  TRP414  GLN425  TRP426 
 SER427  LYS428  LEU429  GLN430  VAL431  PHE432  ASP433  TYR453  SER462  ALA463 
 ILE464 

> <Gold.Protein.RotatedAtoms>
  217.0307   48.7564   18.8791 H   0  0  0  0  0  0  0  0  0  0  0  0  # atno 6581 bound_to 6565
  219.0218   49.3422   20.1605 H   0  0  0  0  0  0  0  0  0  0  0  0  # atno 6673 bound_to 6649
  221.4457   43.4410   20.1884 H   0  0  0  0  0  0  0  0  0  0  0  0  # atno 6813 bound_to 6795
  229.2306   45.4895   20.3134 H   0  0  0  0  0  0  0  0  0  0  0  0  # atno 7894 bound_to 7881
  230.3968   49.4599   19.5665 H   0  0  0  0  0  0  0  0  0  0  0  0  # atno 7898 bound_to 7886
  229.6110   47.5451   17.4477 H   0  0  0  0  0  0  0  0  0  0  0  0  # atno 7949 bound_to 7931
  227.4530   47.1362   14.0206 H   0  0  0  0  0  0  0  0  0  0  0  0  # atno 8033 bound_to 8017
  225.8970   46.0549   11.9052 H   0  0  0  0  0  0  0  0  0  0  0  0  # atno 8113 bound_to 8095
  222.4268   46.1422   11.9214 H   0  0  0  0  0  0  0  0  0  0  0  0  # atno 8173 bound_to 8159
  219.0170   44.4360   10.7773 H   0  0  0  0  0  0  0  0  0  0  0  0  # atno 8253 bound_to 8231
  215.8267   47.1979    9.9837 H   0  0  0  0  0  0  0  0  0  0  0  0  # atno 8321 bound_to 8305
  226.3335   47.3612    8.4577 H   0  0  0  0  0  0  0  0  0  0  0  0  # atno 9553 bound_to 9532
  222.6696   42.3234   11.9465 H   0  0  0  0  0  0  0  0  0  0  0  0  # atno 10193 bound_to 10177
  216.1132   50.2163   16.6938 LP  0  0  0  0  0  0  0  0  0  0  0  0  # atno 27193 bound_to 6328
  215.8840   49.7653   18.3503 LP  0  0  0  0  0  0  0  0  0  0  0  0  # atno 27194 bound_to 6328
  216.8269   47.2295   18.0455 LP  0  0  0  0  0  0  0  0  0  0  0  0  # atno 27195 bound_to 6565
  220.7802   46.3910   20.0674 LP  0  0  0  0  0  0  0  0  0  0  0  0  # atno 27196 bound_to 6568
  220.8225   46.4787   18.3381 LP  0  0  0  0  0  0  0  0  0  0  0  0  # atno 27197 bound_to 6568
  219.2464   47.6897   19.6351 LP  0  0  0  0  0  0  0  0  0  0  0  0  # atno 27198 bound_to 6649
  227.9549   49.3922   17.5213 LP  0  0  0  0  0  0  0  0  0  0  0  0  # atno 27199 bound_to 7884
  226.9608   48.2685   16.6558 LP  0  0  0  0  0  0  0  0  0  0  0  0  # atno 27200 bound_to 7884
  227.4876   46.2895   15.5510 LP  0  0  0  0  0  0  0  0  0  0  0  0  # atno 27201 bound_to 8017
  224.8184   48.0924   13.7348 LP  0  0  0  0  0  0  0  0  0  0  0  0  # atno 27202 bound_to 8020
  223.6781   46.9644   14.3884 LP  0  0  0  0  0  0  0  0  0  0  0  0  # atno 27203 bound_to 8020
  224.6220   45.2272   12.7605 LP  0  0  0  0  0  0  0  0  0  0  0  0  # atno 27204 bound_to 8095
  221.8604   44.3321   10.6242 LP  0  0  0  0  0  0  0  0  0  0  0  0  # atno 27205 bound_to 8098
  222.9049   44.0585   11.9786 LP  0  0  0  0  0  0  0  0  0  0  0  0  # atno 27206 bound_to 8098
  221.5836   47.6348   11.6075 LP  0  0  0  0  0  0  0  0  0  0  0  0  # atno 27207 bound_to 8159
  219.4866   48.2451   10.7304 LP  0  0  0  0  0  0  0  0  0  0  0  0  # atno 27208 bound_to 8162
  217.9103   47.7974   11.2915 LP  0  0  0  0  0  0  0  0  0  0  0  0  # atno 27209 bound_to 8162
  219.2790   46.1576   10.8793 LP  0  0  0  0  0  0  0  0  0  0  0  0  # atno 27210 bound_to 8231
  226.4584   48.6735    7.5037 LP  0  0  0  0  0  0  0  0  0  0  0  0  # atno 27211 bound_to 9532
  227.6413   47.5478    7.5077 LP  0  0  0  0  0  0  0  0  0  0  0  0  # atno 27212 bound_to 9532
  226.9023   44.4566   11.0572 LP  0  0  0  0  0  0  0  0  0  0  0  0  # atno 27213 bound_to 10092
  225.8367   44.1918    9.7176 LP  0  0  0  0  0  0  0  0  0  0  0  0  # atno 27214 bound_to 10092
  216.1669   45.5010   10.2444 LP  0  0  0  0  0  0  0  0  0  0  0  0  # atno 27215 bound_to 8305
  222.3278   41.9469   10.2731 LP  0  0  0  0  0  0  0  0  0  0  0  0  # atno 27216 bound_to 10177
  220.4226   43.3783   10.6879 LP  0  0  0  0  0  0  0  0  0  0  0  0  # atno 27217 bound_to 10180
  218.7020   43.2320   10.8236 LP  0  0  0  0  0  0  0  0  0  0  0  0  # atno 27218 bound_to 10180
  228.8661   45.9926   17.1352 LP  0  0  0  0  0  0  0  0  0  0  0  0  # atno 27219 bound_to 7931
  229.2915   45.0222   13.2704 LP  0  0  0  0  0  0  0  0  0  0  0  0  # atno 27220 bound_to 7934
  228.9045   44.2033   14.7468 LP  0  0  0  0  0  0  0  0  0  0  0  0  # atno 27221 bound_to 7934
  229.6798   43.8318   16.8609 LP  0  0  0  0  0  0  0  0  0  0  0  0  # atno 27222 bound_to 7726
  230.8866   45.0563   16.6502 LP  0  0  0  0  0  0  0  0  0  0  0  0  # atno 27223 bound_to 7726
  226.6638   44.6440   19.3923 LP  0  0  0  0  0  0  0  0  0  0  0  0  # atno 27224 bound_to 7804
  227.2496   44.4054   17.7799 LP  0  0  0  0  0  0  0  0  0  0  0  0  # atno 27225 bound_to 7804
  229.5883   45.3449   18.6100 LP  0  0  0  0  0  0  0  0  0  0  0  0  # atno 27226 bound_to 7881
  230.5533   47.9774   18.9135 LP  0  0  0  0  0  0  0  0  0  0  0  0  # atno 27227 bound_to 7886
  230.8538   48.2089   20.5018 LP  0  0  0  0  0  0  0  0  0  0  0  0  # atno 27228 bound_to 7886

> <Gold.Score>
     Fitness  S(hb_ext) S(vdw_ext)  S(hb_int)    S(int)      intcor
     30.54       8.16      17.12       0.00      -1.17      -0.75

> <Gold.Goldscore.Fitness>
30.5403

> <Gold.Goldscore.Internal.Vdw>
-1.3573

> <Gold.Goldscore.Internal.Torsion>
-0.5637

> <Gold.Goldscore.External.Vdw>
17.1247

> <Gold.Goldscore.Internal.HBond>
0.0000

> <Gold.Goldscore.External.HBond>
8.1600

> <Gold.Goldscore.Internal.Correction>
-0.7548

> <Gold.Goldscore.Hbonds>
donor molecule, donor type, donor heavy atom, donor atom, acceptor molecule, acceptor atom, score
      P1  H  6803  6824       L1     9  1.00
      P1  H  8017  8033       L1    17  0.90
      P1  H  8102  8119       L1    11  0.18

> <Gold.Goldscore.Internal.Vdw.Weighted>
-1.3573

> <Gold.Goldscore.Internal.Torsion.Weighted>
-0.5637

> <Gold.Goldscore.External.Vdw.Weighted>
23.5464

> <Gold.Goldscore.Internal.HBond.Weighted>
0.0000

> <Gold.Goldscore.External.HBond.Weighted>
8.1600

> <Gold.Goldscore.Internal.Correction.Weighted>
-0.7548

> <Gold.Rescore>
     Score     S(PLP)   S(hbond)     S(cho)   S(metal)  DE(clash)   DE(tors)     intcor
     27.27     -20.64       2.98       0.00       0.00       0.90       0.71       ----

> <Gold.PLP.Fitness>
27.2653

> <Gold.PLP.PLP>
-20.6357

> <Gold.PLP.part.hbond>
-3.0000

> <Gold.PLP.part.metal>
0.0000

> <Gold.PLP.part.buried>
-1.9254

> <Gold.PLP.part.nonpolar>
-17.3739

> <Gold.PLP.part.repulsive>
0.7450

> <Gold.PLP.ligand.clash>
0.8965

> <Gold.PLP.ligand.torsion>
0.7118

> <Gold.PLP.Chemscore.Hbond>
2.9833

> <Gold.PLP.Chemscore.CHOScore>
0.0000

> <Gold.PLP.Chemscore.Metal>
0.0000

> <Gold.Chemscore.Hbonds>
donor molecule, donor type, donor heavy atom, donor atom, acceptor molecule, acceptor atom, score
      L1  H     8    22       P1  8020  0.02
      P1  H  6803  6824       L1     9  0.63
      P1  H  8017  8033       L1    17  1.00
      P1  H  8102  8119       L1    11  0.15

> <Gold.PLP.Chemscore.Internal.Correction>
   9.000000E+99

