#       Name:                CT1002167954
#       Creating user name   hitesit
#       Creation time:       Sun Apr 16 23:01:20 2023


#       File generated by GOLD software.
#

@<TRIPOS>MOLECULE
CT1002167954|ligand_prepared|mol2|1|dock4
    29    30     1
SMALL
NO_CHARGES


@<TRIPOS>ATOM
      1 C1         225.5392  51.5242  13.1713 C.3            1 RES1               0.0000
      2 C2         224.0453  51.1409  13.1810 C.ar           1 RES1               0.0000
      3 C3         226.1416  50.9321  14.4421 C.2            1 RES1               0.0000
      4 C4         226.1183  50.9511  11.8826 C.2            1 RES1               0.0000
      5 C5         225.7928  53.0497  13.1721 C.3            1 RES1               0.0000
      6 C6         223.6546  49.8167  13.3562 C.ar           1 RES1               0.0000
      7 C7         223.0480  52.0990  13.0189 C.ar           1 RES1               0.0000
      8 N8         226.9403  49.8346  14.3107 N.am           1 RES1               0.0000
      9 O9         225.8879  51.3973  15.5464 O.2            1 RES1               0.0000
     10 N10        227.0539  49.9552  11.9864 N.am           1 RES1               0.0000
     11 O11        225.7608  51.3413  10.7780 O.2            1 RES1               0.0000
     12 C12        227.2588  53.4275  13.3147 C.3            1 RES1               0.0000
     13 C13        222.3155  49.4635  13.3717 C.ar           1 RES1               0.0000
     14 C14        221.7094  51.7435  13.0345 C.ar           1 RES1               0.0000
     15 C15        227.4685  49.3497  13.1412 C.2            1 RES1               0.0000
     16 C16        221.3421  50.4265  13.2114 C.ar           1 RES1               0.0000
     17 O17        228.2735  48.4228  13.1493 O.2            1 RES1               0.0000
     18 H18        225.4089  53.4720  12.2352 H              1 RES1               0.0000
     19 H19        225.2300  53.5009  13.9986 H              1 RES1               0.0000
     20 H20        224.4065  49.0448  13.4814 H              1 RES1               0.0000
     21 H21        223.3137  53.1411  12.8772 H              1 RES1               0.0000
     22 H22        227.1657  49.3273  15.1605 H              1 RES1               0.0000
     23 H23        227.4808  49.6357  11.1226 H              1 RES1               0.0000
     24 H24        227.3808  54.5086  13.3094 H              1 RES1               0.0000
     25 H25        227.6667  53.0450  14.2481 H              1 RES1               0.0000
     26 H26        227.8445  53.0163  12.4951 H              1 RES1               0.0000
     27 H27        222.0316  48.4254  13.5099 H              1 RES1               0.0000
     28 H28        220.9467  52.5046  12.9074 H              1 RES1               0.0000
     29 H29        220.2931  50.1495  13.2240 H              1 RES1               0.0000
@<TRIPOS>BOND
    1    1    2 1     
    2    1    3 1     
    3    1    4 1     
    4    1    5 1     
    5    2    6 ar    
    6    2    7 ar    
    7    3    8 1     
    8    3    9 2     
    9    4   10 1     
   10    4   11 2     
   11    5   12 1     
   12    5   18 1     
   13    5   19 1     
   14    6   13 ar    
   15    6   20 1     
   16    7   14 ar    
   17    7   21 1     
   18    8   15 1     
   19    8   22 1     
   20   10   15 1     
   21   10   23 1     
   22   12   24 1     
   23   12   25 1     
   24   12   26 1     
   25   13   16 ar    
   26   13   27 1     
   27   14   16 ar    
   28   14   28 1     
   29   15   17 2     
   30   16   29 1     
@<TRIPOS>SUBSTRUCTURE
      1 RES1           1
@<TRIPOS>SET
DONOR_HYDROGENS      STATIC     ATOMS    <user>   **** ""
2 22 23
ATOM$RED        STATIC     ATOMS    COLORGROUP SYSTEM
2 22 23
@<TRIPOS>COMMENT
> <Gold.Version>
2022.3.0

> <Gold.Id.Protein>
unknown|4d1n_clean|pdb

> <Gold.Protein.RotatedTorsions>
[ 6581 6565 6566 6567 ] final  128.20 input  113.40 | X-H torsion
[ 6673 6649 6650 6651 ] final  171.62 input  128.31 | X-H torsion
[ 8033 8017 8018 8019 ] final  -83.39 input   38.97 | X-H torsion
[ 8113 8095 8096 8097 ] final  166.38 input   94.22 | X-H torsion
[ 8173 8159 8160 8161 ] final   -5.31 input   69.09 | X-H torsion
[ 8253 8231 8232 8233 ] final   47.13 input   84.65 | X-H torsion
[ 9553 9532 9531 9529 ] final  -11.58 input   60.02 | X-H torsion
[ 8321 8305 8306 8307 ] final -155.47 input   94.69 | X-H torsion
[ 10193 10177 10178 10179 ] final  116.33 input   41.54 | X-H torsion
[ 7949 7931 7932 7933 ] final  102.30 input   80.35 | X-H torsion
[ 7894 7881 7882 7883 ] final   49.96 input   97.23 | X-H torsion
[ 7898 7886 7885 7882 ] final -142.19 input   59.98 | X-H torsion
[ 6813 6795 6796 6797 ] final  103.11 input  114.70 | X-H torsion
[ 27193 6328 6327 6326 ] final  104.32 input    0.00 | X-H torsion
[ 27196 6568 6567 6566 ] final   81.24 input   -0.00 | X-H torsion
[ 27199 7884 7883 7882 ] final -148.37 input   -0.00 | X-H torsion
[ 27202 8020 8019 8018 ] final   39.67 input   -0.00 | X-H torsion
[ 27205 8098 8097 8096 ] final   -6.11 input   -0.00 | X-H torsion
[ 27208 8162 8161 8160 ] final  -77.18 input    0.00 | X-H torsion
[ 27213 10092 10091 10090 ] final -136.13 input    0.00 | X-H torsion
[ 27217 10180 10179 10178 ] final   59.55 input    0.00 | X-H torsion
[ 27220 7934 7933 7932 ] final   64.82 input    0.00 | X-H torsion
[ 27222 7726 7725 7724 ] final -158.62 input    0.00 | X-H torsion
[ 27224 7804 7803 7802 ] final -169.21 input    0.00 | X-H torsion

> <Gold.Protein.ActiveResidues>
 ASP403  THR404  LEU406  ILE407  TYR408  ALA410  LYS411  TRP414  GLN425  TRP426 
 SER427  LYS428  LEU429  GLN430  VAL431  PHE432  ASP433  TYR453  SER462  ALA463 
 ILE464 

> <Gold.Protein.RotatedAtoms>
  216.8333   48.7879   18.0910 H   0  0  0  0  0  0  0  0  0  0  0  0  # atno 6581 bound_to 6565
  219.2686   49.3670   20.0490 H   0  0  0  0  0  0  0  0  0  0  0  0  # atno 6673 bound_to 6649
  221.4069   44.9689   19.8574 H   0  0  0  0  0  0  0  0  0  0  0  0  # atno 6813 bound_to 6795
  230.1086   45.7323   19.0143 H   0  0  0  0  0  0  0  0  0  0  0  0  # atno 7894 bound_to 7881
  230.7703   48.6889   20.5710 H   0  0  0  0  0  0  0  0  0  0  0  0  # atno 7898 bound_to 7886
  230.0372   46.3830   17.2332 H   0  0  0  0  0  0  0  0  0  0  0  0  # atno 7949 bound_to 7931
  227.8937   46.6771   14.0176 H   0  0  0  0  0  0  0  0  0  0  0  0  # atno 8033 bound_to 8017
  225.8975   46.0305   11.8835 H   0  0  0  0  0  0  0  0  0  0  0  0  # atno 8113 bound_to 8095
  221.6612   47.1688   11.0090 H   0  0  0  0  0  0  0  0  0  0  0  0  # atno 8173 bound_to 8159
  218.8012   44.5221   11.0312 H   0  0  0  0  0  0  0  0  0  0  0  0  # atno 8253 bound_to 8231
  216.4183   46.2184   10.8920 H   0  0  0  0  0  0  0  0  0  0  0  0  # atno 8321 bound_to 8305
  226.9327   48.5919    7.2544 H   0  0  0  0  0  0  0  0  0  0  0  0  # atno 9553 bound_to 9532
  222.6241   42.3826   11.9391 H   0  0  0  0  0  0  0  0  0  0  0  0  # atno 10193 bound_to 10177
  216.4980   50.5095   17.0410 LP  0  0  0  0  0  0  0  0  0  0  0  0  # atno 27193 bound_to 6328
  215.4991   49.4721   18.0032 LP  0  0  0  0  0  0  0  0  0  0  0  0  # atno 27194 bound_to 6328
  217.0171   47.1991   18.8049 LP  0  0  0  0  0  0  0  0  0  0  0  0  # atno 27195 bound_to 6565
  221.3719   46.9754   18.8391 LP  0  0  0  0  0  0  0  0  0  0  0  0  # atno 27196 bound_to 6568
  220.2307   45.8943   19.5664 LP  0  0  0  0  0  0  0  0  0  0  0  0  # atno 27197 bound_to 6568
  219.0058   47.6655   19.7438 LP  0  0  0  0  0  0  0  0  0  0  0  0  # atno 27198 bound_to 6649
  227.3862   48.4544   16.3117 LP  0  0  0  0  0  0  0  0  0  0  0  0  # atno 27199 bound_to 7884
  227.5295   49.2064   17.8654 LP  0  0  0  0  0  0  0  0  0  0  0  0  # atno 27200 bound_to 7884
  227.0594   46.7356   15.5539 LP  0  0  0  0  0  0  0  0  0  0  0  0  # atno 27201 bound_to 8017
  224.9726   47.7745   14.4676 LP  0  0  0  0  0  0  0  0  0  0  0  0  # atno 27202 bound_to 8020
  223.5240   47.2823   13.6556 LP  0  0  0  0  0  0  0  0  0  0  0  0  # atno 27203 bound_to 8020
  224.6215   45.2513   12.7819 LP  0  0  0  0  0  0  0  0  0  0  0  0  # atno 27204 bound_to 8095
  223.1892   44.1452   10.9898 LP  0  0  0  0  0  0  0  0  0  0  0  0  # atno 27205 bound_to 8098
  221.5762   44.2454   11.6130 LP  0  0  0  0  0  0  0  0  0  0  0  0  # atno 27206 bound_to 8098
  222.3441   46.6152   12.5137 LP  0  0  0  0  0  0  0  0  0  0  0  0  # atno 27207 bound_to 8159
  218.2143   47.9541   11.7258 LP  0  0  0  0  0  0  0  0  0  0  0  0  # atno 27208 bound_to 8162
  219.1826   48.0884   10.2960 LP  0  0  0  0  0  0  0  0  0  0  0  0  # atno 27209 bound_to 8162
  219.4920   46.0726   10.6288 LP  0  0  0  0  0  0  0  0  0  0  0  0  # atno 27210 bound_to 8231
  227.4625   47.1805    7.8668 LP  0  0  0  0  0  0  0  0  0  0  0  0  # atno 27211 bound_to 9532
  226.0337   47.8014    8.3565 LP  0  0  0  0  0  0  0  0  0  0  0  0  # atno 27212 bound_to 9532
  225.7028   44.2729   10.9377 LP  0  0  0  0  0  0  0  0  0  0  0  0  # atno 27213 bound_to 10092
  227.0362   44.3755    9.8370 LP  0  0  0  0  0  0  0  0  0  0  0  0  # atno 27214 bound_to 10092
  215.5943   46.4491    9.3653 LP  0  0  0  0  0  0  0  0  0  0  0  0  # atno 27215 bound_to 8305
  222.3721   41.8893   10.2802 LP  0  0  0  0  0  0  0  0  0  0  0  0  # atno 27216 bound_to 10177
  220.2759   43.3003   10.2651 LP  0  0  0  0  0  0  0  0  0  0  0  0  # atno 27217 bound_to 10180
  218.8487   43.3100   11.2464 LP  0  0  0  0  0  0  0  0  0  0  0  0  # atno 27218 bound_to 10180
  228.4530   47.1185   17.3430 LP  0  0  0  0  0  0  0  0  0  0  0  0  # atno 27219 bound_to 7931
  229.3038   44.3569   14.8100 LP  0  0  0  0  0  0  0  0  0  0  0  0  # atno 27220 bound_to 7934
  228.8923   44.8686   13.2072 LP  0  0  0  0  0  0  0  0  0  0  0  0  # atno 27221 bound_to 7934
  229.7660   44.7530   17.3777 LP  0  0  0  0  0  0  0  0  0  0  0  0  # atno 27222 bound_to 7726
  230.8004   44.1351   16.1334 LP  0  0  0  0  0  0  0  0  0  0  0  0  # atno 27223 bound_to 7726
  226.9563   45.3662   18.3814 LP  0  0  0  0  0  0  0  0  0  0  0  0  # atno 27224 bound_to 7804
  226.9571   43.6832   18.7907 LP  0  0  0  0  0  0  0  0  0  0  0  0  # atno 27225 bound_to 7804
  228.7282   45.1071   19.8826 LP  0  0  0  0  0  0  0  0  0  0  0  0  # atno 27226 bound_to 7881
  230.3382   49.2734   19.1149 LP  0  0  0  0  0  0  0  0  0  0  0  0  # atno 27227 bound_to 7886
  230.6929   47.6890   19.2892 LP  0  0  0  0  0  0  0  0  0  0  0  0  # atno 27228 bound_to 7886

> <Gold.Score>
     Fitness  S(hb_ext) S(vdw_ext)  S(hb_int)    S(int)      intcor
     26.19       2.32      17.42       0.00      -0.09      -0.75

> <Gold.Goldscore.Fitness>
26.1916

> <Gold.Goldscore.Internal.Vdw>
-0.4098

> <Gold.Goldscore.Internal.Torsion>
-0.4324

> <Gold.Goldscore.External.Vdw>
17.4248

> <Gold.Goldscore.Internal.HBond>
0.0000

> <Gold.Goldscore.External.HBond>
2.3200

> <Gold.Goldscore.Internal.Correction>
-0.7548

> <Gold.Goldscore.Hbonds>
donor molecule, donor type, donor heavy atom, donor atom, acceptor molecule, acceptor atom, score
      P1  H  6803  6824       L1     9  0.04
      P1  H  8017  8033       L1    17  0.02
      P1  H  8102  8119       L1    11  0.13
      L1  H     8    22       P1  7884  0.91

> <Gold.Goldscore.Internal.Vdw.Weighted>
-0.4098

> <Gold.Goldscore.Internal.Torsion.Weighted>
-0.4324

> <Gold.Goldscore.External.Vdw.Weighted>
23.9591

> <Gold.Goldscore.Internal.HBond.Weighted>
0.0000

> <Gold.Goldscore.External.HBond.Weighted>
2.3200

> <Gold.Goldscore.Internal.Correction.Weighted>
-0.7548

> <Gold.Rescore>
     Score     S(PLP)   S(hbond)     S(cho)   S(metal)  DE(clash)   DE(tors)     intcor
     25.27     -18.98       2.11       0.00       0.00       0.00       0.01       ----

> <Gold.PLP.Fitness>
25.2699

> <Gold.PLP.PLP>
-18.9757

> <Gold.PLP.part.hbond>
-3.1288

> <Gold.PLP.part.metal>
0.0000

> <Gold.PLP.part.buried>
-0.9388

> <Gold.PLP.part.nonpolar>
-16.3496

> <Gold.PLP.part.repulsive>
0.9842

> <Gold.PLP.ligand.clash>
0.0000

> <Gold.PLP.ligand.torsion>
0.0126

> <Gold.PLP.Chemscore.Hbond>
2.1065

> <Gold.PLP.Chemscore.CHOScore>
0.0000

> <Gold.PLP.Chemscore.Metal>
0.0000

> <Gold.Chemscore.Hbonds>
donor molecule, donor type, donor heavy atom, donor atom, acceptor molecule, acceptor atom, score
      L1  H     8    22       P1  7884  0.42
      P1  H  6803  6824       L1     9  0.46
      P1  H  8017  8033       L1    17  0.62
      P1  H  8102  8119       L1    11  0.82

> <Gold.PLP.Chemscore.Internal.Correction>
   9.000000E+99

