#       Name:                CT1002167954
#       Creating user name   hitesit
#       Creation time:       Sun Apr 16 23:01:21 2023


#       File generated by GOLD software.
#

@<TRIPOS>MOLECULE
CT1002167954|ligand_prepared|mol2|1|dock5
    29    30     1
SMALL
NO_CHARGES


@<TRIPOS>ATOM
      1 C1         231.7214  47.0448  10.6233 C.3            1 RES1               0.0000
      2 C2         232.0343  48.3863  11.3171 C.ar           1 RES1               0.0000
      3 C3         231.1363  46.1330  11.6977 C.2            1 RES1               0.0000
      4 C4         230.7564  47.3668   9.4876 C.2            1 RES1               0.0000
      5 C5         232.9625  46.3522  10.0138 C.3            1 RES1               0.0000
      6 C6         231.0398  49.0793  12.0008 C.ar           1 RES1               0.0000
      7 C7         233.3110  48.9410  11.2845 C.ar           1 RES1               0.0000
      8 N8         229.7950  45.8895  11.6581 N.am           1 RES1               0.0000
      9 O9         231.8345  45.6664  12.5895 O.2            1 RES1               0.0000
     10 N10        229.4830  46.8669   9.5659 N.am           1 RES1               0.0000
     11 O11        231.0824  48.0628   8.5339 O.2            1 RES1               0.0000
     12 C12        232.6707  44.9834   9.4193 C.3            1 RES1               0.0000
     13 C13        231.3124  50.2819  12.6316 C.ar           1 RES1               0.0000
     14 C14        233.5813  50.1438  11.9158 C.ar           1 RES1               0.0000
     15 C15        228.9494  46.1685  10.6146 C.2            1 RES1               0.0000
     16 C16        232.5832  50.8147  12.5899 C.ar           1 RES1               0.0000
     17 O17        227.7788  45.7991  10.6355 O.2            1 RES1               0.0000
     18 H18        233.3769  46.9970   9.2289 H              1 RES1               0.0000
     19 H19        233.7249  46.2426  10.7949 H              1 RES1               0.0000
     20 H20        230.0332  48.6768  12.0423 H              1 RES1               0.0000
     21 H21        234.1115  48.4313  10.7592 H              1 RES1               0.0000
     22 H22        229.3825  45.4605  12.4803 H              1 RES1               0.0000
     23 H23        228.8766  47.0304   8.7684 H              1 RES1               0.0000
     24 H24        233.5749  44.5418   9.0056 H              1 RES1               0.0000
     25 H25        232.2805  44.3085  10.1782 H              1 RES1               0.0000
     26 H26        231.9345  45.0584   8.6216 H              1 RES1               0.0000
     27 H27        230.5230  50.8066  13.1597 H              1 RES1               0.0000
     28 H28        234.5828  50.5598  11.8799 H              1 RES1               0.0000
     29 H29        232.7965  51.7566  13.0845 H              1 RES1               0.0000
@<TRIPOS>BOND
    1    1    2 1     
    2    1    3 1     
    3    1    4 1     
    4    1    5 1     
    5    2    6 ar    
    6    2    7 ar    
    7    3    8 1     
    8    3    9 2     
    9    4   10 1     
   10    4   11 2     
   11    5   12 1     
   12    5   18 1     
   13    5   19 1     
   14    6   13 ar    
   15    6   20 1     
   16    7   14 ar    
   17    7   21 1     
   18    8   15 1     
   19    8   22 1     
   20   10   15 1     
   21   10   23 1     
   22   12   24 1     
   23   12   25 1     
   24   12   26 1     
   25   13   16 ar    
   26   13   27 1     
   27   14   16 ar    
   28   14   28 1     
   29   15   17 2     
   30   16   29 1     
@<TRIPOS>SUBSTRUCTURE
      1 RES1           1
@<TRIPOS>SET
DONOR_HYDROGENS      STATIC     ATOMS    <user>   **** ""
2 22 23
ATOM$RED        STATIC     ATOMS    COLORGROUP SYSTEM
2 22 23
@<TRIPOS>COMMENT
> <Gold.Version>
2022.3.0

> <Gold.Id.Protein>
unknown|4d1n_clean|pdb

> <Gold.Protein.RotatedTorsions>
[ 6581 6565 6566 6567 ] final  -50.14 input  113.40 | X-H torsion
[ 6673 6649 6650 6651 ] final  -72.59 input  128.31 | X-H torsion
[ 8033 8017 8018 8019 ] final  149.83 input   38.97 | X-H torsion
[ 8113 8095 8096 8097 ] final  153.35 input   94.22 | X-H torsion
[ 8173 8159 8160 8161 ] final  -62.94 input   69.09 | X-H torsion
[ 8253 8231 8232 8233 ] final  162.25 input   84.65 | X-H torsion
[ 9553 9532 9531 9529 ] final  159.43 input   60.02 | X-H torsion
[ 8321 8305 8306 8307 ] final  179.45 input   94.69 | X-H torsion
[ 10193 10177 10178 10179 ] final  -12.12 input   41.54 | X-H torsion
[ 7949 7931 7932 7933 ] final  157.75 input   80.35 | X-H torsion
[ 7894 7881 7882 7883 ] final   26.17 input   97.23 | X-H torsion
[ 7898 7886 7885 7882 ] final  122.11 input   59.98 | X-H torsion
[ 6813 6795 6796 6797 ] final  -45.18 input  114.70 | X-H torsion
[ 27193 6328 6327 6326 ] final  -96.20 input    0.00 | X-H torsion
[ 27196 6568 6567 6566 ] final   19.35 input   -0.00 | X-H torsion
[ 27199 7884 7883 7882 ] final  -75.72 input   -0.00 | X-H torsion
[ 27202 8020 8019 8018 ] final -120.50 input   -0.00 | X-H torsion
[ 27205 8098 8097 8096 ] final  130.01 input   -0.00 | X-H torsion
[ 27208 8162 8161 8160 ] final  -31.04 input    0.00 | X-H torsion
[ 27213 10092 10091 10090 ] final  161.53 input    0.00 | X-H torsion
[ 27217 10180 10179 10178 ] final  -95.24 input    0.00 | X-H torsion
[ 27220 7934 7933 7932 ] final  -54.52 input    0.00 | X-H torsion
[ 27222 7726 7725 7724 ] final  -76.32 input    0.00 | X-H torsion
[ 27224 7804 7803 7802 ] final   88.05 input    0.00 | X-H torsion

> <Gold.Protein.ActiveResidues>
 ASP403  THR404  LEU406  ILE407  TYR408  ALA410  LYS411  TRP414  GLN425  TRP426 
 SER427  LYS428  LEU429  GLN430  VAL431  PHE432  ASP433  TYR453  SER462  ALA463 
 ILE464 

> <Gold.Protein.RotatedAtoms>
  217.0528   47.1814   18.8341 H   0  0  0  0  0  0  0  0  0  0  0  0  # atno 6581 bound_to 6565
  219.7940   48.0822   19.4804 H   0  0  0  0  0  0  0  0  0  0  0  0  # atno 6673 bound_to 6649
  221.5220   43.2817   19.8908 H   0  0  0  0  0  0  0  0  0  0  0  0  # atno 6813 bound_to 6795
  229.9209   45.5688   18.7491 H   0  0  0  0  0  0  0  0  0  0  0  0  # atno 7894 bound_to 7881
  230.3798   49.4408   19.4708 H   0  0  0  0  0  0  0  0  0  0  0  0  # atno 7898 bound_to 7886
  229.9997   47.1938   17.3915 H   0  0  0  0  0  0  0  0  0  0  0  0  # atno 7949 bound_to 7931
  227.6056   46.1763   15.4950 H   0  0  0  0  0  0  0  0  0  0  0  0  # atno 8033 bound_to 8017
  225.8813   45.8706   11.7657 H   0  0  0  0  0  0  0  0  0  0  0  0  # atno 8113 bound_to 8095
  222.0365   46.4145   11.0316 H   0  0  0  0  0  0  0  0  0  0  0  0  # atno 8173 bound_to 8159
  219.7462   45.2886   10.1853 H   0  0  0  0  0  0  0  0  0  0  0  0  # atno 8253 bound_to 8231
  216.3714   46.6015   10.8791 H   0  0  0  0  0  0  0  0  0  0  0  0  # atno 8321 bound_to 8305
  226.5591   47.1904    8.4291 H   0  0  0  0  0  0  0  0  0  0  0  0  # atno 9553 bound_to 9532
  221.9843   42.5119   10.4823 H   0  0  0  0  0  0  0  0  0  0  0  0  # atno 10193 bound_to 10177
  215.6756   49.5976   18.2229 LP  0  0  0  0  0  0  0  0  0  0  0  0  # atno 27193 bound_to 6328
  216.3215   50.3840   16.8213 LP  0  0  0  0  0  0  0  0  0  0  0  0  # atno 27194 bound_to 6328
  216.8056   48.7471   18.0889 LP  0  0  0  0  0  0  0  0  0  0  0  0  # atno 27195 bound_to 6565
  220.8256   46.4816   18.3383 LP  0  0  0  0  0  0  0  0  0  0  0  0  # atno 27196 bound_to 6568
  220.7771   46.3881   20.0672 LP  0  0  0  0  0  0  0  0  0  0  0  0  # atno 27197 bound_to 6568
  218.4938   48.9178   20.2980 LP  0  0  0  0  0  0  0  0  0  0  0  0  # atno 27198 bound_to 6649
  226.7668   48.3092   17.1166 LP  0  0  0  0  0  0  0  0  0  0  0  0  # atno 27199 bound_to 7884
  228.1490   49.3515   17.0606 LP  0  0  0  0  0  0  0  0  0  0  0  0  # atno 27200 bound_to 7884
  227.3393   47.2223   14.1183 LP  0  0  0  0  0  0  0  0  0  0  0  0  # atno 27201 bound_to 8017
  223.4992   47.1224   13.9061 LP  0  0  0  0  0  0  0  0  0  0  0  0  # atno 27202 bound_to 8020
  224.9973   47.9343   14.2171 LP  0  0  0  0  0  0  0  0  0  0  0  0  # atno 27203 bound_to 8020
  224.6375   45.4091   12.8981 LP  0  0  0  0  0  0  0  0  0  0  0  0  # atno 27204 bound_to 8095
  222.0106   44.1429   12.0817 LP  0  0  0  0  0  0  0  0  0  0  0  0  # atno 27205 bound_to 8098
  222.7548   44.2478   10.5211 LP  0  0  0  0  0  0  0  0  0  0  0  0  # atno 27206 bound_to 8098
  221.9713   47.3643   12.4913 LP  0  0  0  0  0  0  0  0  0  0  0  0  # atno 27207 bound_to 8159
  218.8428   48.1777   11.8503 LP  0  0  0  0  0  0  0  0  0  0  0  0  # atno 27208 bound_to 8162
  218.5540   47.8647   10.1715 LP  0  0  0  0  0  0  0  0  0  0  0  0  # atno 27209 bound_to 8162
  218.5594   45.3162   11.4635 LP  0  0  0  0  0  0  0  0  0  0  0  0  # atno 27210 bound_to 8231
  226.2475   48.6032    7.6843 LP  0  0  0  0  0  0  0  0  0  0  0  0  # atno 27211 bound_to 9532
  227.6250   47.7901    7.3558 LP  0  0  0  0  0  0  0  0  0  0  0  0  # atno 27212 bound_to 9532
  225.5829   44.1827   10.0539 LP  0  0  0  0  0  0  0  0  0  0  0  0  # atno 27213 bound_to 10092
  227.1561   44.4657   10.7208 LP  0  0  0  0  0  0  0  0  0  0  0  0  # atno 27214 bound_to 10092
  215.6397   46.0783    9.3778 LP  0  0  0  0  0  0  0  0  0  0  0  0  # atno 27215 bound_to 8305
  222.9947   41.7635   11.6979 LP  0  0  0  0  0  0  0  0  0  0  0  0  # atno 27216 bound_to 10177
  219.1227   43.3746   11.4987 LP  0  0  0  0  0  0  0  0  0  0  0  0  # atno 27217 bound_to 10180
  220.0019   43.2357   10.0129 LP  0  0  0  0  0  0  0  0  0  0  0  0  # atno 27218 bound_to 10180
  228.4894   46.3329   17.1896 LP  0  0  0  0  0  0  0  0  0  0  0  0  # atno 27219 bound_to 7931
  229.6708   45.0726   13.5498 LP  0  0  0  0  0  0  0  0  0  0  0  0  # atno 27220 bound_to 7934
  228.5252   44.1530   14.4674 LP  0  0  0  0  0  0  0  0  0  0  0  0  # atno 27221 bound_to 7934
  230.6986   45.1917   16.8911 LP  0  0  0  0  0  0  0  0  0  0  0  0  # atno 27222 bound_to 7726
  229.8678   43.6963   16.6199 LP  0  0  0  0  0  0  0  0  0  0  0  0  # atno 27223 bound_to 7726
  226.6700   44.5267   19.4033 LP  0  0  0  0  0  0  0  0  0  0  0  0  # atno 27224 bound_to 7804
  227.2434   44.5227   17.7689 LP  0  0  0  0  0  0  0  0  0  0  0  0  # atno 27225 bound_to 7804
  228.9120   45.2673   20.1424 LP  0  0  0  0  0  0  0  0  0  0  0  0  # atno 27226 bound_to 7881
  230.5813   47.9039   18.9748 LP  0  0  0  0  0  0  0  0  0  0  0  0  # atno 27227 bound_to 7886
  230.8429   48.3016   20.5368 LP  0  0  0  0  0  0  0  0  0  0  0  0  # atno 27228 bound_to 7886

> <Gold.Score>
     Fitness  S(hb_ext) S(vdw_ext)  S(hb_int)    S(int)      intcor
     28.54       3.69      18.14       0.00      -0.09      -0.75

> <Gold.Goldscore.Fitness>
28.5410

> <Gold.Goldscore.Internal.Vdw>
-0.4478

> <Gold.Goldscore.Internal.Torsion>
-0.3972

> <Gold.Goldscore.External.Vdw>
18.1358

> <Gold.Goldscore.Internal.HBond>
0.0000

> <Gold.Goldscore.External.HBond>
3.6944

> <Gold.Goldscore.Internal.Correction>
-0.7548

> <Gold.Goldscore.Hbonds>
donor molecule, donor type, donor heavy atom, donor atom, acceptor molecule, acceptor atom, score
      P1  H  8095  8113       L1    17  0.79
      P1  H  9532  9553       L1    17  0.08
      L1  H     8    22       P1  7934  0.94
      L1  H    10    23       P1  9532  0.04

> <Gold.Goldscore.Internal.Vdw.Weighted>
-0.4478

> <Gold.Goldscore.Internal.Torsion.Weighted>
-0.3972

> <Gold.Goldscore.External.Vdw.Weighted>
24.9368

> <Gold.Goldscore.Internal.HBond.Weighted>
0.0000

> <Gold.Goldscore.External.HBond.Weighted>
3.6944

> <Gold.Goldscore.Internal.Correction.Weighted>
-0.7548

> <Gold.Rescore>
     Score     S(PLP)   S(hbond)     S(cho)   S(metal)  DE(clash)   DE(tors)     intcor
     32.11     -26.31       2.28       0.00       0.00       0.00       0.53       ----

> <Gold.PLP.Fitness>
32.1057

> <Gold.PLP.PLP>
-26.3146

> <Gold.PLP.part.hbond>
-3.5087

> <Gold.PLP.part.metal>
0.0000

> <Gold.PLP.part.buried>
-2.5623

> <Gold.PLP.part.nonpolar>
-24.3101

> <Gold.PLP.part.repulsive>
3.8048

> <Gold.PLP.ligand.clash>
0.0000

> <Gold.PLP.ligand.torsion>
0.5267

> <Gold.PLP.Chemscore.Hbond>
2.2815

> <Gold.PLP.Chemscore.CHOScore>
0.0000

> <Gold.PLP.Chemscore.Metal>
0.0000

> <Gold.Chemscore.Hbonds>
donor molecule, donor type, donor heavy atom, donor atom, acceptor molecule, acceptor atom, score
      L1  H     8    22       P1  7934  1.00
      P1  H  8095  8113       L1    17  0.73

> <Gold.PLP.Chemscore.Internal.Correction>
   9.000000E+99

