#       Name:                CT1002167954
#       Creating user name   hitesit
#       Creation time:       Sun Apr 16 23:01:22 2023


#       File generated by GOLD software.
#

@<TRIPOS>MOLECULE
CT1002167954|ligand_prepared|mol2|1|dock7
    29    30     1
SMALL
NO_CHARGES


@<TRIPOS>ATOM
      1 C1         227.6814  50.1472  12.9285 C.3            1 RES1               0.0000
      2 C2         228.1616  48.8433  12.2592 C.ar           1 RES1               0.0000
      3 C3         227.2121  49.7625  14.3285 C.2            1 RES1               0.0000
      4 C4         228.8722  51.0992  12.9113 C.2            1 RES1               0.0000
      5 C5         226.5097  50.8342  12.1892 C.3            1 RES1               0.0000
      6 C6         229.5201  48.5629  12.1472 C.ar           1 RES1               0.0000
      7 C7         227.2596  47.9116  11.7523 C.ar           1 RES1               0.0000
      8 N8         228.0086  50.1097  15.3796 N.am           1 RES1               0.0000
      9 O9         226.1784  49.1294  14.5045 O.2            1 RES1               0.0000
     10 N10        229.4211  51.4628  14.1131 N.am           1 RES1               0.0000
     11 O11        229.3505  51.5247  11.8671 O.2            1 RES1               0.0000
     12 C12        226.2011  52.2341  12.6965 C.3            1 RES1               0.0000
     13 C13        229.9610  47.3922  11.5528 C.ar           1 RES1               0.0000
     14 C14        227.7026  46.7415  11.1580 C.ar           1 RES1               0.0000
     15 C15        229.0626  50.9870  15.3449 C.2            1 RES1               0.0000
     16 C16        229.0527  46.4806  11.0582 C.ar           1 RES1               0.0000
     17 O17        229.6400  51.3202  16.3758 O.2            1 RES1               0.0000
     18 H18        226.7513  50.8911  11.1207 H              1 RES1               0.0000
     19 H19        225.6116  50.2136  12.2973 H              1 RES1               0.0000
     20 H20        230.2498  49.2696  12.5285 H              1 RES1               0.0000
     21 H21        226.1928  48.0963  11.8189 H              1 RES1               0.0000
     22 H22        227.8016  49.6771  16.2742 H              1 RES1               0.0000
     23 H23        230.1658  52.1520  14.0870 H              1 RES1               0.0000
     24 H24        225.3715  52.6704  12.1442 H              1 RES1               0.0000
     25 H25        225.9321  52.2118  13.7505 H              1 RES1               0.0000
     26 H26        227.0651  52.8853  12.5809 H              1 RES1               0.0000
     27 H27        231.0246  47.1922  11.4754 H              1 RES1               0.0000
     28 H28        226.9842  46.0272  10.7696 H              1 RES1               0.0000
     29 H29        229.3983  45.5634  10.5929 H              1 RES1               0.0000
@<TRIPOS>BOND
    1    1    2 1     
    2    1    3 1     
    3    1    4 1     
    4    1    5 1     
    5    2    6 ar    
    6    2    7 ar    
    7    3    8 1     
    8    3    9 2     
    9    4   10 1     
   10    4   11 2     
   11    5   12 1     
   12    5   18 1     
   13    5   19 1     
   14    6   13 ar    
   15    6   20 1     
   16    7   14 ar    
   17    7   21 1     
   18    8   15 1     
   19    8   22 1     
   20   10   15 1     
   21   10   23 1     
   22   12   24 1     
   23   12   25 1     
   24   12   26 1     
   25   13   16 ar    
   26   13   27 1     
   27   14   16 ar    
   28   14   28 1     
   29   15   17 2     
   30   16   29 1     
@<TRIPOS>SUBSTRUCTURE
      1 RES1           1
@<TRIPOS>SET
DONOR_HYDROGENS      STATIC     ATOMS    <user>   **** ""
2 22 23
ATOM$RED        STATIC     ATOMS    COLORGROUP SYSTEM
2 22 23
@<TRIPOS>COMMENT
> <Gold.Version>
2022.3.0

> <Gold.Id.Protein>
unknown|4d1n_clean|pdb

> <Gold.Protein.RotatedTorsions>
[ 6581 6565 6566 6567 ] final  177.27 input  113.40 | X-H torsion
[ 6673 6649 6650 6651 ] final   38.03 input  128.31 | X-H torsion
[ 8033 8017 8018 8019 ] final   -6.90 input   38.97 | X-H torsion
[ 8113 8095 8096 8097 ] final -105.92 input   94.22 | X-H torsion
[ 8173 8159 8160 8161 ] final  -43.84 input   69.09 | X-H torsion
[ 8253 8231 8232 8233 ] final   16.19 input   84.65 | X-H torsion
[ 9553 9532 9531 9529 ] final  -96.16 input   60.02 | X-H torsion
[ 8321 8305 8306 8307 ] final  -44.21 input   94.69 | X-H torsion
[ 10193 10177 10178 10179 ] final  -85.39 input   41.54 | X-H torsion
[ 7949 7931 7932 7933 ] final -156.41 input   80.35 | X-H torsion
[ 7894 7881 7882 7883 ] final  -99.99 input   97.23 | X-H torsion
[ 7898 7886 7885 7882 ] final  162.20 input   59.98 | X-H torsion
[ 6813 6795 6796 6797 ] final -120.45 input  114.70 | X-H torsion
[ 27193 6328 6327 6326 ] final -129.98 input    0.00 | X-H torsion
[ 27196 6568 6567 6566 ] final  -26.16 input   -0.00 | X-H torsion
[ 27199 7884 7883 7882 ] final  -99.19 input   -0.00 | X-H torsion
[ 27202 8020 8019 8018 ] final  107.64 input   -0.00 | X-H torsion
[ 27205 8098 8097 8096 ] final -130.72 input   -0.00 | X-H torsion
[ 27208 8162 8161 8160 ] final -172.30 input    0.00 | X-H torsion
[ 27213 10092 10091 10090 ] final  -76.10 input    0.00 | X-H torsion
[ 27217 10180 10179 10178 ] final -108.75 input    0.00 | X-H torsion
[ 27220 7934 7933 7932 ] final   69.00 input    0.00 | X-H torsion
[ 27222 7726 7725 7724 ] final  -34.16 input    0.00 | X-H torsion
[ 27224 7804 7803 7802 ] final   -3.09 input    0.00 | X-H torsion

> <Gold.Protein.ActiveResidues>
 ASP403  THR404  LEU406  ILE407  TYR408  ALA410  LYS411  TRP414  GLN425  TRP426 
 SER427  LYS428  LEU429  GLN430  VAL431  PHE432  ASP433  TYR453  SER462  ALA463 
 ILE464 

> <Gold.Protein.RotatedAtoms>
  216.7278   48.2254   17.6208 H   0  0  0  0  0  0  0  0  0  0  0  0  # atno 6581 bound_to 6565
  218.4725   47.9476   20.0770 H   0  0  0  0  0  0  0  0  0  0  0  0  # atno 6673 bound_to 6649
  221.7072   43.6743   18.9087 H   0  0  0  0  0  0  0  0  0  0  0  0  # atno 6813 bound_to 6795
  228.6475   44.9748   19.4568 H   0  0  0  0  0  0  0  0  0  0  0  0  # atno 7894 bound_to 7881
  230.5279   49.3785   20.0923 H   0  0  0  0  0  0  0  0  0  0  0  0  # atno 7898 bound_to 7886
  229.4453   47.6037   17.4537 H   0  0  0  0  0  0  0  0  0  0  0  0  # atno 7949 bound_to 7931
  227.0858   47.3537   14.3271 H   0  0  0  0  0  0  0  0  0  0  0  0  # atno 8033 bound_to 8017
  225.2827   46.3156   12.8937 H   0  0  0  0  0  0  0  0  0  0  0  0  # atno 8113 bound_to 8095
  221.8941   46.6468   10.9316 H   0  0  0  0  0  0  0  0  0  0  0  0  # atno 8173 bound_to 8159
  218.5986   44.8285   11.3220 H   0  0  0  0  0  0  0  0  0  0  0  0  # atno 8253 bound_to 8231
  215.8502   45.5587    9.7100 H   0  0  0  0  0  0  0  0  0  0  0  0  # atno 8321 bound_to 8305
  227.6362   47.5737    7.4902 H   0  0  0  0  0  0  0  0  0  0  0  0  # atno 9553 bound_to 9532
  222.5709   41.6395   10.3656 H   0  0  0  0  0  0  0  0  0  0  0  0  # atno 10193 bound_to 10177
  216.0426   49.9026   18.3825 LP  0  0  0  0  0  0  0  0  0  0  0  0  # atno 27193 bound_to 6328
  215.9545   50.0790   16.6617 LP  0  0  0  0  0  0  0  0  0  0  0  0  # atno 27194 bound_to 6328
  217.1188   47.7411   19.2580 LP  0  0  0  0  0  0  0  0  0  0  0  0  # atno 27195 bound_to 6565
  220.3661   46.0483   18.5616 LP  0  0  0  0  0  0  0  0  0  0  0  0  # atno 27196 bound_to 6568
  221.2366   46.8214   19.8439 LP  0  0  0  0  0  0  0  0  0  0  0  0  # atno 27197 bound_to 6568
  219.7818   49.0490   19.7166 LP  0  0  0  0  0  0  0  0  0  0  0  0  # atno 27198 bound_to 6649
  226.8801   48.2603   16.7866 LP  0  0  0  0  0  0  0  0  0  0  0  0  # atno 27199 bound_to 7884
  228.0357   49.4005   17.3905 LP  0  0  0  0  0  0  0  0  0  0  0  0  # atno 27200 bound_to 7884
  227.8444   46.0782   15.2531 LP  0  0  0  0  0  0  0  0  0  0  0  0  # atno 27201 bound_to 8017
  224.7049   48.0974   13.5951 LP  0  0  0  0  0  0  0  0  0  0  0  0  # atno 27202 bound_to 8020
  223.7916   46.9593   14.5281 LP  0  0  0  0  0  0  0  0  0  0  0  0  # atno 27203 bound_to 8020
  225.2281   44.9700   11.7852 LP  0  0  0  0  0  0  0  0  0  0  0  0  # atno 27204 bound_to 8095
  221.6763   44.3289   10.8186 LP  0  0  0  0  0  0  0  0  0  0  0  0  # atno 27205 bound_to 8098
  223.0891   44.0617   11.7842 LP  0  0  0  0  0  0  0  0  0  0  0  0  # atno 27206 bound_to 8098
  222.1127   47.1337   12.5906 LP  0  0  0  0  0  0  0  0  0  0  0  0  # atno 27207 bound_to 8159
  218.0787   47.7467   10.4718 LP  0  0  0  0  0  0  0  0  0  0  0  0  # atno 27208 bound_to 8162
  219.3181   48.2957   11.5500 LP  0  0  0  0  0  0  0  0  0  0  0  0  # atno 27209 bound_to 8162
  219.6920   45.7703   10.3418 LP  0  0  0  0  0  0  0  0  0  0  0  0  # atno 27210 bound_to 8231
  226.3539   47.3379    8.4638 LP  0  0  0  0  0  0  0  0  0  0  0  0  # atno 27211 bound_to 9532
  226.4337   48.6695    7.5220 LP  0  0  0  0  0  0  0  0  0  0  0  0  # atno 27212 bound_to 9532
  226.5030   44.4136   11.2384 LP  0  0  0  0  0  0  0  0  0  0  0  0  # atno 27213 bound_to 10092
  226.2360   44.2347    9.5364 LP  0  0  0  0  0  0  0  0  0  0  0  0  # atno 27214 bound_to 10092
  216.1442   47.0877   10.5094 LP  0  0  0  0  0  0  0  0  0  0  0  0  # atno 27215 bound_to 8305
  222.4238   42.6125   11.8114 LP  0  0  0  0  0  0  0  0  0  0  0  0  # atno 27216 bound_to 10177
  218.9616   43.3408   11.3786 LP  0  0  0  0  0  0  0  0  0  0  0  0  # atno 27217 bound_to 10180
  220.1630   43.2695   10.1329 LP  0  0  0  0  0  0  0  0  0  0  0  0  # atno 27218 bound_to 10180
  229.0266   45.9357   17.1293 LP  0  0  0  0  0  0  0  0  0  0  0  0  # atno 27219 bound_to 7931
  229.2469   44.3296   14.8134 LP  0  0  0  0  0  0  0  0  0  0  0  0  # atno 27220 bound_to 7934
  228.9492   44.8959   13.2038 LP  0  0  0  0  0  0  0  0  0  0  0  0  # atno 27221 bound_to 7934
  230.9792   44.8569   16.4469 LP  0  0  0  0  0  0  0  0  0  0  0  0  # atno 27222 bound_to 7726
  229.5873   44.0312   17.0641 LP  0  0  0  0  0  0  0  0  0  0  0  0  # atno 27223 bound_to 7726
  227.0276   43.6616   18.5948 LP  0  0  0  0  0  0  0  0  0  0  0  0  # atno 27224 bound_to 7804
  226.8858   45.3878   18.5774 LP  0  0  0  0  0  0  0  0  0  0  0  0  # atno 27225 bound_to 7804
  230.1594   45.8492   19.4491 LP  0  0  0  0  0  0  0  0  0  0  0  0  # atno 27226 bound_to 7881
  230.4143   48.4818   18.7388 LP  0  0  0  0  0  0  0  0  0  0  0  0  # atno 27227 bound_to 7886
  230.8608   47.7863   20.1472 LP  0  0  0  0  0  0  0  0  0  0  0  0  # atno 27228 bound_to 7886

> <Gold.Score>
     Fitness  S(hb_ext) S(vdw_ext)  S(hb_int)    S(int)      intcor
     30.78       0.37      23.13       0.00      -1.39      -0.75

> <Gold.Goldscore.Fitness>
30.7796

> <Gold.Goldscore.Internal.Vdw>
-1.6124

> <Gold.Goldscore.Internal.Torsion>
-0.5342

> <Gold.Goldscore.External.Vdw>
23.1307

> <Gold.Goldscore.Internal.HBond>
0.0000

> <Gold.Goldscore.External.HBond>
0.3668

> <Gold.Goldscore.Internal.Correction>
-0.7548

> <Gold.Goldscore.Hbonds>
donor molecule, donor type, donor heavy atom, donor atom, acceptor molecule, acceptor atom, score
      P1  H  8017  8033       L1     9  0.08
      L1  H     8    22       P1  7884  0.10

> <Gold.Goldscore.Internal.Vdw.Weighted>
-1.6124

> <Gold.Goldscore.Internal.Torsion.Weighted>
-0.5342

> <Gold.Goldscore.External.Vdw.Weighted>
31.8047

> <Gold.Goldscore.Internal.HBond.Weighted>
0.0000

> <Gold.Goldscore.External.HBond.Weighted>
0.3668

> <Gold.Goldscore.Internal.Correction.Weighted>
-0.7548

> <Gold.Rescore>
     Score     S(PLP)   S(hbond)     S(cho)   S(metal)  DE(clash)   DE(tors)     intcor
     35.82     -31.84       2.00       0.00       0.00       0.00       1.01       ----

> <Gold.PLP.Fitness>
35.8177

> <Gold.PLP.PLP>
-31.8392

> <Gold.PLP.part.hbond>
-2.1565

> <Gold.PLP.part.metal>
0.0000

> <Gold.PLP.part.buried>
-6.2659

> <Gold.PLP.part.nonpolar>
-25.2436

> <Gold.PLP.part.repulsive>
0.6740

> <Gold.PLP.ligand.clash>
0.0000

> <Gold.PLP.ligand.torsion>
1.0108

> <Gold.PLP.Chemscore.Hbond>
2.0000

> <Gold.PLP.Chemscore.CHOScore>
0.0000

> <Gold.PLP.Chemscore.Metal>
0.0000

> <Gold.Chemscore.Hbonds>
donor molecule, donor type, donor heavy atom, donor atom, acceptor molecule, acceptor atom, score
      L1  H     8    22       P1  7884  0.91
      P1  H  8017  8033       L1     9  0.66

> <Gold.PLP.Chemscore.Internal.Correction>
   9.000000E+99

