#       Name:                CT1002167954
#       Creating user name   hitesit
#       Creation time:       Sun Apr 16 23:01:19 2023


#       File generated by GOLD software.
#

@<TRIPOS>MOLECULE
CT1002167954|ligand_prepared|mol2|1|dock2
    29    30     1
SMALL
NO_CHARGES


@<TRIPOS>ATOM
      1 C1         224.7601  51.7239  13.0541 C.3            1 RES1               0.0000
      2 C2         226.1204  51.0076  12.9301 C.ar           1 RES1               0.0000
      3 C3         224.0457  51.5204  11.7213 C.2            1 RES1               0.0000
      4 C4         224.0500  51.0879  14.2441 C.2            1 RES1               0.0000
      5 C5         224.8758  53.2424  13.3226 C.3            1 RES1               0.0000
      6 C6         226.1814  49.6295  12.7461 C.ar           1 RES1               0.0000
      7 C7         227.3205  51.7105  12.9950 C.ar           1 RES1               0.0000
      8 N8         223.0082  50.6358  11.6891 N.am           1 RES1               0.0000
      9 O9         224.4124  52.0976  10.7051 O.2            1 RES1               0.0000
     10 N10        222.9059  50.3736  14.0023 N.am           1 RES1               0.0000
     11 O11        224.4801  51.1849  15.3868 O.2            1 RES1               0.0000
     12 C12        223.5348  53.9393  13.4903 C.3            1 RES1               0.0000
     13 C13        227.3980  48.9780  12.6282 C.ar           1 RES1               0.0000
     14 C14        228.5361  51.0570  12.8771 C.ar           1 RES1               0.0000
     15 C15        222.3696  50.0930  12.7751 C.2            1 RES1               0.0000
     16 C16        228.5760  49.6913  12.6931 C.ar           1 RES1               0.0000
     17 O17        221.3678  49.3975  12.6349 O.2            1 RES1               0.0000
     18 H18        225.4697  53.3960  14.2321 H              1 RES1               0.0000
     19 H19        225.4140  53.7086  12.4881 H              1 RES1               0.0000
     20 H20        225.2649  49.0512  12.6949 H              1 RES1               0.0000
     21 H21        227.3134  52.7854  13.1403 H              1 RES1               0.0000
     22 H22        222.6764  50.3516  10.7729 H              1 RES1               0.0000
     23 H23        222.4076  50.0183  14.8121 H              1 RES1               0.0000
     24 H24        223.6731  55.0023  13.6764 H              1 RES1               0.0000
     25 H25        222.9277  53.8284  12.5943 H              1 RES1               0.0000
     26 H26        222.9830  53.5176  14.3279 H              1 RES1               0.0000
     27 H27        227.4240  47.9029  12.4849 H              1 RES1               0.0000
     28 H28        229.4607  51.6223  12.9295 H              1 RES1               0.0000
     29 H29        229.5288  49.1808  12.6004 H              1 RES1               0.0000
@<TRIPOS>BOND
    1    1    2 1     
    2    1    3 1     
    3    1    4 1     
    4    1    5 1     
    5    2    6 ar    
    6    2    7 ar    
    7    3    8 1     
    8    3    9 2     
    9    4   10 1     
   10    4   11 2     
   11    5   12 1     
   12    5   18 1     
   13    5   19 1     
   14    6   13 ar    
   15    6   20 1     
   16    7   14 ar    
   17    7   21 1     
   18    8   15 1     
   19    8   22 1     
   20   10   15 1     
   21   10   23 1     
   22   12   24 1     
   23   12   25 1     
   24   12   26 1     
   25   13   16 ar    
   26   13   27 1     
   27   14   16 ar    
   28   14   28 1     
   29   15   17 2     
   30   16   29 1     
@<TRIPOS>SUBSTRUCTURE
      1 RES1           1
@<TRIPOS>SET
DONOR_HYDROGENS      STATIC     ATOMS    <user>   **** ""
2 22 23
ATOM$RED        STATIC     ATOMS    COLORGROUP SYSTEM
2 22 23
@<TRIPOS>COMMENT
> <Gold.Version>
2022.3.0

> <Gold.Id.Protein>
unknown|4d1n_clean|pdb

> <Gold.Protein.RotatedTorsions>
[ 6581 6565 6566 6567 ] final -120.07 input  113.40 | X-H torsion
[ 6673 6649 6650 6651 ] final   78.55 input  128.31 | X-H torsion
[ 8033 8017 8018 8019 ] final   70.26 input   38.97 | X-H torsion
[ 8113 8095 8096 8097 ] final  170.94 input   94.22 | X-H torsion
[ 8173 8159 8160 8161 ] final   84.68 input   69.09 | X-H torsion
[ 8253 8231 8232 8233 ] final   93.84 input   84.65 | X-H torsion
[ 9553 9532 9531 9529 ] final   15.73 input   60.02 | X-H torsion
[ 8321 8305 8306 8307 ] final -123.52 input   94.69 | X-H torsion
[ 10193 10177 10178 10179 ] final  134.40 input   41.54 | X-H torsion
[ 7949 7931 7932 7933 ] final  -52.76 input   80.35 | X-H torsion
[ 7894 7881 7882 7883 ] final  -40.99 input   97.23 | X-H torsion
[ 7898 7886 7885 7882 ] final   45.31 input   59.98 | X-H torsion
[ 6813 6795 6796 6797 ] final  -92.39 input  114.70 | X-H torsion
[ 27193 6328 6327 6326 ] final  -77.23 input    0.00 | X-H torsion
[ 27196 6568 6567 6566 ] final  142.35 input   -0.00 | X-H torsion
[ 27199 7884 7883 7882 ] final   81.01 input   -0.00 | X-H torsion
[ 27202 8020 8019 8018 ] final  -77.70 input   -0.00 | X-H torsion
[ 27205 8098 8097 8096 ] final   55.61 input   -0.00 | X-H torsion
[ 27208 8162 8161 8160 ] final -154.00 input    0.00 | X-H torsion
[ 27213 10092 10091 10090 ] final  175.08 input    0.00 | X-H torsion
[ 27217 10180 10179 10178 ] final  -48.79 input    0.00 | X-H torsion
[ 27220 7934 7933 7932 ] final -109.51 input    0.00 | X-H torsion
[ 27222 7726 7725 7724 ] final -134.40 input    0.00 | X-H torsion
[ 27224 7804 7803 7802 ] final   18.72 input    0.00 | X-H torsion

> <Gold.Protein.ActiveResidues>
 ASP403  THR404  LEU406  ILE407  TYR408  ALA410  LYS411  TRP414  GLN425  TRP426 
 SER427  LYS428  LEU429  GLN430  VAL431  PHE432  ASP433  TYR453  SER462  ALA463 
 ILE464 

> <Gold.Protein.RotatedAtoms>
  216.8049   47.3309   17.8537 H   0  0  0  0  0  0  0  0  0  0  0  0  # atno 6581 bound_to 6565
  218.3385   48.5106   20.2802 H   0  0  0  0  0  0  0  0  0  0  0  0  # atno 6673 bound_to 6649
  221.6641   43.3731   19.2072 H   0  0  0  0  0  0  0  0  0  0  0  0  # atno 6813 bound_to 6795
  229.0812   45.0732   18.7102 H   0  0  0  0  0  0  0  0  0  0  0  0  # atno 7894 bound_to 7881
  230.4030   48.5316   18.7452 H   0  0  0  0  0  0  0  0  0  0  0  0  # atno 7898 bound_to 7886
  228.3446   46.7666   17.2522 H   0  0  0  0  0  0  0  0  0  0  0  0  # atno 7949 bound_to 7931
  226.8636   47.0252   15.3602 H   0  0  0  0  0  0  0  0  0  0  0  0  # atno 8033 bound_to 8017
  225.8954   46.0821   11.9307 H   0  0  0  0  0  0  0  0  0  0  0  0  # atno 8113 bound_to 8095
  221.7611   47.6378   12.1485 H   0  0  0  0  0  0  0  0  0  0  0  0  # atno 8173 bound_to 8159
  219.2691   44.4906   10.5169 H   0  0  0  0  0  0  0  0  0  0  0  0  # atno 8253 bound_to 8231
  216.3618   45.7714   10.7005 H   0  0  0  0  0  0  0  0  0  0  0  0  # atno 8321 bound_to 8305
  226.5432   48.6735    7.4466 H   0  0  0  0  0  0  0  0  0  0  0  0  # atno 9553 bound_to 9532
  222.7863   42.1563   11.9357 H   0  0  0  0  0  0  0  0  0  0  0  0  # atno 10193 bound_to 10177
  215.5104   49.4794   18.0223 LP  0  0  0  0  0  0  0  0  0  0  0  0  # atno 27193 bound_to 6328
  216.4867   50.5022   17.0219 LP  0  0  0  0  0  0  0  0  0  0  0  0  # atno 27194 bound_to 6328
  217.0445   48.6030   19.0336 LP  0  0  0  0  0  0  0  0  0  0  0  0  # atno 27195 bound_to 6565
  221.3198   46.9024   19.7151 LP  0  0  0  0  0  0  0  0  0  0  0  0  # atno 27196 bound_to 6568
  220.2828   45.9673   18.6904 LP  0  0  0  0  0  0  0  0  0  0  0  0  # atno 27197 bound_to 6568
  219.9123   48.5003   19.5184 LP  0  0  0  0  0  0  0  0  0  0  0  0  # atno 27198 bound_to 6649
  228.0371   49.4004   17.3878 LP  0  0  0  0  0  0  0  0  0  0  0  0  # atno 27199 bound_to 7884
  226.8787   48.2603   16.7893 LP  0  0  0  0  0  0  0  0  0  0  0  0  # atno 27200 bound_to 7884
  228.0603   46.3974   14.2494 LP  0  0  0  0  0  0  0  0  0  0  0  0  # atno 27201 bound_to 8017
  223.7381   46.9585   14.4678 LP  0  0  0  0  0  0  0  0  0  0  0  0  # atno 27202 bound_to 8020
  224.7584   48.0982   13.6554 LP  0  0  0  0  0  0  0  0  0  0  0  0  # atno 27203 bound_to 8020
  224.6236   45.2004   12.7354 LP  0  0  0  0  0  0  0  0  0  0  0  0  # atno 27204 bound_to 8095
  223.0305   44.0591   11.8597 LP  0  0  0  0  0  0  0  0  0  0  0  0  # atno 27205 bound_to 8098
  221.7349   44.3316   10.7430 LP  0  0  0  0  0  0  0  0  0  0  0  0  # atno 27206 bound_to 8098
  222.2448   46.1493   11.3820 LP  0  0  0  0  0  0  0  0  0  0  0  0  # atno 27207 bound_to 8159
  217.9400   47.7317   10.7093 LP  0  0  0  0  0  0  0  0  0  0  0  0  # atno 27208 bound_to 8162
  219.4569   48.3107   11.3125 LP  0  0  0  0  0  0  0  0  0  0  0  0  # atno 27209 bound_to 8162
  219.0303   46.1038   11.1364 LP  0  0  0  0  0  0  0  0  0  0  0  0  # atno 27210 bound_to 8231
  227.6285   47.4674    7.5696 LP  0  0  0  0  0  0  0  0  0  0  0  0  # atno 27211 bound_to 9532
  226.2600   47.4323    8.4601 LP  0  0  0  0  0  0  0  0  0  0  0  0  # atno 27212 bound_to 9532
  225.5250   44.1904   10.2497 LP  0  0  0  0  0  0  0  0  0  0  0  0  # atno 27213 bound_to 10092
  227.2140   44.4580   10.5251 LP  0  0  0  0  0  0  0  0  0  0  0  0  # atno 27214 bound_to 10092
  215.6490   46.8818    9.5506 LP  0  0  0  0  0  0  0  0  0  0  0  0  # atno 27215 bound_to 8305
  222.2143   42.1095   10.2836 LP  0  0  0  0  0  0  0  0  0  0  0  0  # atno 27216 bound_to 10177
  219.7968   43.4516   11.5765 LP  0  0  0  0  0  0  0  0  0  0  0  0  # atno 27217 bound_to 10180
  219.3278   43.1587    9.9351 LP  0  0  0  0  0  0  0  0  0  0  0  0  # atno 27218 bound_to 10180
  230.0931   46.7469   17.3246 LP  0  0  0  0  0  0  0  0  0  0  0  0  # atno 27219 bound_to 7931
  228.9696   44.9053   13.2036 LP  0  0  0  0  0  0  0  0  0  0  0  0  # atno 27220 bound_to 7934
  229.2264   44.3203   14.8135 LP  0  0  0  0  0  0  0  0  0  0  0  0  # atno 27221 bound_to 7934
  230.0122   45.0181   17.3445 LP  0  0  0  0  0  0  0  0  0  0  0  0  # atno 27222 bound_to 7726
  230.5543   43.8699   16.1665 LP  0  0  0  0  0  0  0  0  0  0  0  0  # atno 27223 bound_to 7726
  226.9165   43.7178   18.8980 LP  0  0  0  0  0  0  0  0  0  0  0  0  # atno 27224 bound_to 7804
  226.9969   45.3316   18.2742 LP  0  0  0  0  0  0  0  0  0  0  0  0  # atno 27225 bound_to 7804
  229.7346   45.7528   20.1804 LP  0  0  0  0  0  0  0  0  0  0  0  0  # atno 27226 bound_to 7881
  230.8568   47.7591   20.1039 LP  0  0  0  0  0  0  0  0  0  0  0  0  # atno 27227 bound_to 7886
  230.5440   49.3615   20.1381 LP  0  0  0  0  0  0  0  0  0  0  0  0  # atno 27228 bound_to 7886

> <Gold.Score>
     Fitness  S(hb_ext) S(vdw_ext)  S(hb_int)    S(int)      intcor
     32.95      11.99      15.27       0.00      -0.03      -0.75

> <Gold.Goldscore.Fitness>
32.9546

> <Gold.Goldscore.Internal.Vdw>
-0.4096

> <Gold.Goldscore.Internal.Torsion>
-0.3724

> <Gold.Goldscore.External.Vdw>
15.2694

> <Gold.Goldscore.Internal.HBond>
0.0000

> <Gold.Goldscore.External.HBond>
11.9865

> <Gold.Goldscore.Internal.Correction>
-0.7548

> <Gold.Goldscore.Hbonds>
donor molecule, donor type, donor heavy atom, donor atom, acceptor molecule, acceptor atom, score
      P1  H  6803  6824       L1    11  0.77
      P1  H  8102  8119       L1     9  0.36
      P1  H  8159  8173       L1    17  0.31
      L1  H     8    22       P1  8103  1.00

> <Gold.Goldscore.Internal.Vdw.Weighted>
-0.4096

> <Gold.Goldscore.Internal.Torsion.Weighted>
-0.3724

> <Gold.Goldscore.External.Vdw.Weighted>
20.9954

> <Gold.Goldscore.Internal.HBond.Weighted>
0.0000

> <Gold.Goldscore.External.HBond.Weighted>
11.9865

> <Gold.Goldscore.Internal.Correction.Weighted>
-0.7548

> <Gold.Rescore>
     Score     S(PLP)   S(hbond)     S(cho)   S(metal)  DE(clash)   DE(tors)     intcor
     26.01     -16.93       3.10       0.00       0.00       0.00       0.10       ----

> <Gold.PLP.Fitness>
26.0134

> <Gold.PLP.PLP>
-16.9298

> <Gold.PLP.part.hbond>
-3.6551

> <Gold.PLP.part.metal>
0.0000

> <Gold.PLP.part.buried>
-3.0013

> <Gold.PLP.part.nonpolar>
-13.6698

> <Gold.PLP.part.repulsive>
0.7897

> <Gold.PLP.ligand.clash>
0.0000

> <Gold.PLP.ligand.torsion>
0.1045

> <Gold.PLP.Chemscore.Hbond>
3.0975

> <Gold.PLP.Chemscore.CHOScore>
0.0000

> <Gold.PLP.Chemscore.Metal>
0.0000

> <Gold.Chemscore.Hbonds>
donor molecule, donor type, donor heavy atom, donor atom, acceptor molecule, acceptor atom, score
      L1  H     8    22       P1  8103  0.75
      P1  H  6803  6824       L1    11  0.63
      P1  H  8102  8119       L1     9  0.25
      P1  H  8159  8173       L1    17  1.00

> <Gold.PLP.Chemscore.Internal.Correction>
   9.000000E+99

