#       Name:                CT1002167954
#       Creating user name   hitesit
#       Creation time:       Sun Apr 16 23:01:21 2023


#       File generated by GOLD software.
#

@<TRIPOS>MOLECULE
CT1002167954|ligand_prepared|mol2|1|dock6
    29    30     1
SMALL
NO_CHARGES


@<TRIPOS>ATOM
      1 C1         225.5427  51.5390  13.0558 C.3            1 RES1               0.0000
      2 C2         226.2126  52.9275  13.0988 C.ar           1 RES1               0.0000
      3 C3         226.0435  50.8608  11.7840 C.2            1 RES1               0.0000
      4 C4         225.9506  50.8285  14.3416 C.2            1 RES1               0.0000
      5 C5         223.9978  51.5918  13.0085 C.3            1 RES1               0.0000
      6 C6         227.5960  53.0499  13.0089 C.ar           1 RES1               0.0000
      7 C7         225.4617  54.0932  13.2251 C.ar           1 RES1               0.0000
      8 N8         226.9578  49.8582  11.9206 N.am           1 RES1               0.0000
      9 O9         225.6717  51.2267  10.6758 O.2            1 RES1               0.0000
     10 N10        226.7456  49.7173  14.2368 N.am           1 RES1               0.0000
     11 O11        225.6044  51.2306  15.4456 O.2            1 RES1               0.0000
     12 C12        223.3358  50.2237  13.0561 C.3            1 RES1               0.0000
     13 C13        228.2064  54.2928  13.0411 C.ar           1 RES1               0.0000
     14 C14        226.0742  55.3351  13.2573 C.ar           1 RES1               0.0000
     15 C15        227.2930  49.2179  13.0865 C.2            1 RES1               0.0000
     16 C16        227.4461  55.4361  13.1648 C.ar           1 RES1               0.0000
     17 O17        228.0431  48.2461  13.0792 O.2            1 RES1               0.0000
     18 H18        223.6388  52.1875  13.8568 H              1 RES1               0.0000
     19 H19        223.6899  52.1011  12.0870 H              1 RES1               0.0000
     20 H20        228.2109  52.1612  12.9135 H              1 RES1               0.0000
     21 H21        224.3810  54.0378  13.3005 H              1 RES1               0.0000
     22 H22        227.4368  49.5567  11.0780 H              1 RES1               0.0000
     23 H23        226.9480  49.2159  15.0959 H              1 RES1               0.0000
     24 H24        222.2525  50.3180  13.0202 H              1 RES1               0.0000
     25 H25        223.6510  49.6131  12.2126 H              1 RES1               0.0000
     26 H26        223.6002  49.6990  13.9719 H              1 RES1               0.0000
     27 H27        229.2865  54.3668  12.9693 H              1 RES1               0.0000
     28 H28        225.4719  56.2322  13.3554 H              1 RES1               0.0000
     29 H29        227.9245  56.4096  13.1896 H              1 RES1               0.0000
@<TRIPOS>BOND
    1    1    2 1     
    2    1    3 1     
    3    1    4 1     
    4    1    5 1     
    5    2    6 ar    
    6    2    7 ar    
    7    3    8 1     
    8    3    9 2     
    9    4   10 1     
   10    4   11 2     
   11    5   12 1     
   12    5   18 1     
   13    5   19 1     
   14    6   13 ar    
   15    6   20 1     
   16    7   14 ar    
   17    7   21 1     
   18    8   15 1     
   19    8   22 1     
   20   10   15 1     
   21   10   23 1     
   22   12   24 1     
   23   12   25 1     
   24   12   26 1     
   25   13   16 ar    
   26   13   27 1     
   27   14   16 ar    
   28   14   28 1     
   29   15   17 2     
   30   16   29 1     
@<TRIPOS>SUBSTRUCTURE
      1 RES1           1
@<TRIPOS>SET
DONOR_HYDROGENS      STATIC     ATOMS    <user>   **** ""
2 22 23
ATOM$RED        STATIC     ATOMS    COLORGROUP SYSTEM
2 22 23
@<TRIPOS>COMMENT
> <Gold.Version>
2022.3.0

> <Gold.Id.Protein>
unknown|4d1n_clean|pdb

> <Gold.Protein.RotatedTorsions>
[ 6581 6565 6566 6567 ] final  159.71 input  113.40 | X-H torsion
[ 6673 6649 6650 6651 ] final -160.75 input  128.31 | X-H torsion
[ 8033 8017 8018 8019 ] final  -78.91 input   38.97 | X-H torsion
[ 8113 8095 8096 8097 ] final   12.80 input   94.22 | X-H torsion
[ 8173 8159 8160 8161 ] final  121.30 input   69.09 | X-H torsion
[ 8253 8231 8232 8233 ] final -129.71 input   84.65 | X-H torsion
[ 9553 9532 9531 9529 ] final    5.45 input   60.02 | X-H torsion
[ 8321 8305 8306 8307 ] final  -16.62 input   94.69 | X-H torsion
[ 10193 10177 10178 10179 ] final -164.25 input   41.54 | X-H torsion
[ 7949 7931 7932 7933 ] final  161.91 input   80.35 | X-H torsion
[ 7894 7881 7882 7883 ] final  153.60 input   97.23 | X-H torsion
[ 7898 7886 7885 7882 ] final   20.75 input   59.98 | X-H torsion
[ 6813 6795 6796 6797 ] final    5.04 input  114.70 | X-H torsion
[ 27193 6328 6327 6326 ] final -167.60 input    0.00 | X-H torsion
[ 27196 6568 6567 6566 ] final  138.79 input   -0.00 | X-H torsion
[ 27199 7884 7883 7882 ] final    2.34 input   -0.00 | X-H torsion
[ 27202 8020 8019 8018 ] final -100.52 input   -0.00 | X-H torsion
[ 27205 8098 8097 8096 ] final    8.79 input   -0.00 | X-H torsion
[ 27208 8162 8161 8160 ] final -145.41 input    0.00 | X-H torsion
[ 27213 10092 10091 10090 ] final  -66.49 input    0.00 | X-H torsion
[ 27217 10180 10179 10178 ] final    9.94 input    0.00 | X-H torsion
[ 27220 7934 7933 7932 ] final  134.80 input    0.00 | X-H torsion
[ 27222 7726 7725 7724 ] final  116.13 input    0.00 | X-H torsion
[ 27224 7804 7803 7802 ] final -171.04 input    0.00 | X-H torsion

> <Gold.Protein.ActiveResidues>
 ASP403  THR404  LEU406  ILE407  TYR408  ALA410  LYS411  TRP414  GLN425  TRP426 
 SER427  LYS428  LEU429  GLN430  VAL431  PHE432  ASP433  TYR453  SER462  ALA463 
 ILE464 

> <Gold.Protein.RotatedAtoms>
  216.7506   48.4725   17.7329 H   0  0  0  0  0  0  0  0  0  0  0  0  # atno 6581 bound_to 6565
  219.6213   49.2444   19.8506 H   0  0  0  0  0  0  0  0  0  0  0  0  # atno 6673 bound_to 6649
  221.3687   43.7723   20.4316 H   0  0  0  0  0  0  0  0  0  0  0  0  # atno 6813 bound_to 6795
  229.5555   45.6724   20.2848 H   0  0  0  0  0  0  0  0  0  0  0  0  # atno 7894 bound_to 7881
  230.4954   48.1513   18.8199 H   0  0  0  0  0  0  0  0  0  0  0  0  # atno 7898 bound_to 7886
  229.9651   47.2475   17.4009 H   0  0  0  0  0  0  0  0  0  0  0  0  # atno 7949 bound_to 7931
  227.8538   46.7301   13.9970 H   0  0  0  0  0  0  0  0  0  0  0  0  # atno 8033 bound_to 8017
  224.6859   44.9878   12.4895 H   0  0  0  0  0  0  0  0  0  0  0  0  # atno 8113 bound_to 8095
  222.0202   47.3282   12.5210 H   0  0  0  0  0  0  0  0  0  0  0  0  # atno 8173 bound_to 8159
  219.4759   46.1012   10.6670 H   0  0  0  0  0  0  0  0  0  0  0  0  # atno 8253 bound_to 8231
  215.6790   45.8447    9.4475 H   0  0  0  0  0  0  0  0  0  0  0  0  # atno 8321 bound_to 8305
  226.6875   48.6640    7.3615 H   0  0  0  0  0  0  0  0  0  0  0  0  # atno 9553 bound_to 9532
  223.0510   41.4986   11.3742 H   0  0  0  0  0  0  0  0  0  0  0  0  # atno 10193 bound_to 10177
  216.4282   50.2722   18.2194 LP  0  0  0  0  0  0  0  0  0  0  0  0  # atno 27193 bound_to 6328
  215.5689   49.7094   16.8248 LP  0  0  0  0  0  0  0  0  0  0  0  0  # atno 27194 bound_to 6328
  217.0969   47.5031   19.1500 LP  0  0  0  0  0  0  0  0  0  0  0  0  # atno 27195 bound_to 6565
  221.3415   46.9238   19.6708 LP  0  0  0  0  0  0  0  0  0  0  0  0  # atno 27196 bound_to 6568
  220.2611   45.9458   18.7347 LP  0  0  0  0  0  0  0  0  0  0  0  0  # atno 27197 bound_to 6568
  218.6621   47.7850   19.9372 LP  0  0  0  0  0  0  0  0  0  0  0  0  # atno 27198 bound_to 6649
  227.1770   48.9487   17.8992 LP  0  0  0  0  0  0  0  0  0  0  0  0  # atno 27199 bound_to 7884
  227.7387   48.7121   16.2779 LP  0  0  0  0  0  0  0  0  0  0  0  0  # atno 27200 bound_to 7884
  227.0982   46.6842   15.5740 LP  0  0  0  0  0  0  0  0  0  0  0  0  # atno 27201 bound_to 8017
  223.5641   47.0101   14.1771 LP  0  0  0  0  0  0  0  0  0  0  0  0  # atno 27202 bound_to 8020
  224.9324   48.0466   13.9461 LP  0  0  0  0  0  0  0  0  0  0  0  0  # atno 27203 bound_to 8020
  225.8169   46.2801   12.1840 LP  0  0  0  0  0  0  0  0  0  0  0  0  # atno 27204 bound_to 8095
  223.2396   44.1140   11.2064 LP  0  0  0  0  0  0  0  0  0  0  0  0  # atno 27205 bound_to 8098
  221.5257   44.2766   11.3964 LP  0  0  0  0  0  0  0  0  0  0  0  0  # atno 27206 bound_to 8098
  221.9875   46.4569   11.0120 LP  0  0  0  0  0  0  0  0  0  0  0  0  # atno 27207 bound_to 8159
  217.9008   47.7348   10.8328 LP  0  0  0  0  0  0  0  0  0  0  0  0  # atno 27208 bound_to 8162
  219.4961   48.3077   11.1890 LP  0  0  0  0  0  0  0  0  0  0  0  0  # atno 27209 bound_to 8162
  218.8261   44.5144   10.9882 LP  0  0  0  0  0  0  0  0  0  0  0  0  # atno 27210 bound_to 8231
  227.5862   47.3450    7.6783 LP  0  0  0  0  0  0  0  0  0  0  0  0  # atno 27211 bound_to 9532
  226.1570   47.5642    8.4371 LP  0  0  0  0  0  0  0  0  0  0  0  0  # atno 27212 bound_to 9532
  226.6425   44.4309   11.2023 LP  0  0  0  0  0  0  0  0  0  0  0  0  # atno 27213 bound_to 10092
  226.0965   44.2175    9.5725 LP  0  0  0  0  0  0  0  0  0  0  0  0  # atno 27214 bound_to 10092
  216.3099   46.8109   10.7634 LP  0  0  0  0  0  0  0  0  0  0  0  0  # atno 27215 bound_to 8305
  221.9567   42.7496   10.8299 LP  0  0  0  0  0  0  0  0  0  0  0  0  # atno 27216 bound_to 10177
  220.3931   43.4184   10.9725 LP  0  0  0  0  0  0  0  0  0  0  0  0  # atno 27217 bound_to 10180
  218.7315   43.1919   10.5390 LP  0  0  0  0  0  0  0  0  0  0  0  0  # atno 27218 bound_to 10180
  228.5229   46.2809   17.1805 LP  0  0  0  0  0  0  0  0  0  0  0  0  # atno 27219 bound_to 7931
  228.4424   44.1647   14.3542 LP  0  0  0  0  0  0  0  0  0  0  0  0  # atno 27220 bound_to 7934
  229.7536   45.0608   13.6629 LP  0  0  0  0  0  0  0  0  0  0  0  0  # atno 27221 bound_to 7934
  229.7529   43.7594   16.7546 LP  0  0  0  0  0  0  0  0  0  0  0  0  # atno 27222 bound_to 7726
  230.8135   45.1287   16.7565 LP  0  0  0  0  0  0  0  0  0  0  0  0  # atno 27223 bound_to 7726
  226.9469   45.3719   18.4068 LP  0  0  0  0  0  0  0  0  0  0  0  0  # atno 27224 bound_to 7804
  226.9665   43.6775   18.7654 LP  0  0  0  0  0  0  0  0  0  0  0  0  # atno 27225 bound_to 7804
  229.2700   45.1658   18.6379 LP  0  0  0  0  0  0  0  0  0  0  0  0  # atno 27226 bound_to 7881
  230.8673   48.0299   20.3997 LP  0  0  0  0  0  0  0  0  0  0  0  0  # atno 27227 bound_to 7886
  230.4406   49.4736   19.7671 LP  0  0  0  0  0  0  0  0  0  0  0  0  # atno 27228 bound_to 7886

> <Gold.Score>
     Fitness  S(hb_ext) S(vdw_ext)  S(hb_int)    S(int)      intcor
     17.50       2.61      11.69       0.00      -1.19      -0.75

> <Gold.Goldscore.Fitness>
17.4971

> <Gold.Goldscore.Internal.Vdw>
-1.5548

> <Gold.Goldscore.Internal.Torsion>
-0.3873

> <Gold.Goldscore.External.Vdw>
11.6934

> <Gold.Goldscore.Internal.HBond>
0.0000

> <Gold.Goldscore.External.HBond>
2.6060

> <Gold.Goldscore.Internal.Correction>
-0.7548

> <Gold.Goldscore.Hbonds>
donor molecule, donor type, donor heavy atom, donor atom, acceptor molecule, acceptor atom, score
      P1  H  6803  6824       L1    11  0.13
      P1  H  8017  8033       L1    17  0.05
      P1  H  8102  8119       L1     9  0.13
      L1  H    10    23       P1  7884  0.73

> <Gold.Goldscore.Internal.Vdw.Weighted>
-1.5548

> <Gold.Goldscore.Internal.Torsion.Weighted>
-0.3873

> <Gold.Goldscore.External.Vdw.Weighted>
16.0784

> <Gold.Goldscore.Internal.HBond.Weighted>
0.0000

> <Gold.Goldscore.External.HBond.Weighted>
2.6060

> <Gold.Goldscore.Internal.Correction.Weighted>
-0.7548

> <Gold.Rescore>
     Score     S(PLP)   S(hbond)     S(cho)   S(metal)  DE(clash)   DE(tors)     intcor
     16.67     -10.23       2.16       0.00       0.00       0.00       0.02       ----

> <Gold.PLP.Fitness>
16.6711

> <Gold.PLP.PLP>
-10.2278

> <Gold.PLP.part.hbond>
-2.3353

> <Gold.PLP.part.metal>
0.0000

> <Gold.PLP.part.buried>
-1.4672

> <Gold.PLP.part.nonpolar>
-7.5691

> <Gold.PLP.part.repulsive>
0.5836

> <Gold.PLP.ligand.clash>
0.0000

> <Gold.PLP.ligand.torsion>
0.0210

> <Gold.PLP.Chemscore.Hbond>
2.1618

> <Gold.PLP.Chemscore.CHOScore>
0.0000

> <Gold.PLP.Chemscore.Metal>
0.0000

> <Gold.Chemscore.Hbonds>
donor molecule, donor type, donor heavy atom, donor atom, acceptor molecule, acceptor atom, score
      L1  H    10    23       P1  7884  0.21
      P1  H  6803  6824       L1    11  0.62
      P1  H  8017  8033       L1    17  0.66
      P1  H  8102  8119       L1     9  0.57

> <Gold.PLP.Chemscore.Internal.Correction>
   9.000000E+99

