#       Name:                CT1002167954
#       Creating user name   hitesit
#       Creation time:       Sun Apr 16 22:50:40 2023


#       File generated by GOLD software.
#

@<TRIPOS>MOLECULE
CT1002167954|ligand_prepared|mol2|1|dock4
    29    30     1
SMALL
NO_CHARGES


@<TRIPOS>ATOM
      1 C1          33.7512  19.1802  58.9645 C.3            1 RES1               0.0000
      2 C2          32.3102  19.1794  59.5144 C.ar           1 RES1               0.0000
      3 C3          33.6485  19.5746  57.4941 C.2            1 RES1               0.0000
      4 C4          34.5341  20.1695  59.8208 C.2            1 RES1               0.0000
      5 C5          34.4558  17.8066  59.0566 C.3            1 RES1               0.0000
      6 C6          31.5822  17.9960  59.5925 C.ar           1 RES1               0.0000
      7 C7          31.6976  20.3518  59.9490 C.ar           1 RES1               0.0000
      8 N8          34.0523  20.8301  57.1470 N.am           1 RES1               0.0000
      9 O9          33.1833  18.8096  56.6583 O.2            1 RES1               0.0000
     10 N10         35.0079  21.3054  59.2185 N.am           1 RES1               0.0000
     11 O11         34.7306  19.9835  61.0154 O.2            1 RES1               0.0000
     12 C12         35.9511  17.8653  58.7868 C.3            1 RES1               0.0000
     13 C13         30.2896  17.9843  60.0899 C.ar           1 RES1               0.0000
     14 C14         30.4047  20.3379  60.4459 C.ar           1 RES1               0.0000
     15 C15         34.7761  21.6953  57.9275 C.2            1 RES1               0.0000
     16 C16         29.7002  19.1550  60.5173 C.ar           1 RES1               0.0000
     17 O17         35.1903  22.7581  57.4736 O.2            1 RES1               0.0000
     18 H18         34.2940  17.3933  60.0598 H              1 RES1               0.0000
     19 H19         33.9932  17.1233  58.3338 H              1 RES1               0.0000
     20 H20         32.0286  17.0652  59.2586 H              1 RES1               0.0000
     21 H21         32.2324  21.2942  59.9012 H              1 RES1               0.0000
     22 H22         33.7921  21.1558  56.2216 H              1 RES1               0.0000
     23 H23         35.5871  21.9170  59.7849 H              1 RES1               0.0000
     24 H24         36.3961  16.8755  58.8640 H              1 RES1               0.0000
     25 H25         36.1481  18.2483  57.7876 H              1 RES1               0.0000
     26 H26         36.4471  18.5167  59.5034 H              1 RES1               0.0000
     27 H27         29.7389  17.0509  60.1427 H              1 RES1               0.0000
     28 H28         29.9446  21.2618  60.7805 H              1 RES1               0.0000
     29 H29         28.6877  19.1455  60.9072 H              1 RES1               0.0000
@<TRIPOS>BOND
    1    1    2 1     
    2    1    3 1     
    3    1    4 1     
    4    1    5 1     
    5    2    6 ar    
    6    2    7 ar    
    7    3    8 1     
    8    3    9 2     
    9    4   10 1     
   10    4   11 2     
   11    5   12 1     
   12    5   18 1     
   13    5   19 1     
   14    6   13 ar    
   15    6   20 1     
   16    7   14 ar    
   17    7   21 1     
   18    8   15 1     
   19    8   22 1     
   20   10   15 1     
   21   10   23 1     
   22   12   24 1     
   23   12   25 1     
   24   12   26 1     
   25   13   16 ar    
   26   13   27 1     
   27   14   16 ar    
   28   14   28 1     
   29   15   17 2     
   30   16   29 1     
@<TRIPOS>SUBSTRUCTURE
      1 RES1           1
@<TRIPOS>SET
DONOR_HYDROGENS      STATIC     ATOMS    <user>   **** ""
2 22 23
ATOM$RED        STATIC     ATOMS    COLORGROUP SYSTEM
2 22 23
@<TRIPOS>COMMENT
> <Gold.Version>
2022.3.0

> <Gold.Id.Protein>
unknown|3l9n_clean|pdb

> <Gold.Protein.RotatedTorsions>
[ 3656 3649 3648 3646 ] final -155.06 input   60.01 | X-H torsion
[ 3578 3569 3568 3566 ] final   49.91 input   59.99 | X-H torsion
[ 3854 3846 3845 3843 ] final  111.64 input   60.02 | X-H torsion
[ 2581 2570 2569 2568 ] final   74.48 input   60.01 | X-H torsion
[ 3119 3112 3110 3107 ] final   67.69 input   60.01 | X-H torsion
[ 5145 5136 5135 5133 ] final   68.60 input   59.99 | X-H torsion
[ 1922 1917 1916 1913 ] final    6.60 input   59.98 | X-H torsion
[ 3169 3160 3159 3157 ] final   87.14 input   59.99 | X-H torsion
[  630  627  626  623 ] final  -99.24 input   60.00 | X-H torsion

> <Gold.Protein.ActiveResidues>
 LEU49   GLY50   THR51   GLY52   SER53   PHE54   GLY55   LEU82   LYS83   GLN84  
 HIS87   GLY126  GLU127  PHE129  SER130  HIS131  LEU132  ARG133  ARG134  GLY136 
 ARG137  ARG165  ASP166  LEU167  LYS168  PRO169  GLU170  ASN171  MET173  ASP184 
 PHE187  TPO197  LEU198  CYS199  GLY200  THR201  PRO202  GLU203  TYR204  LEU205 
 ILE209  ILE210  VAL226  LEU227  TYR229  GLU230  ALA233  GLY234  TYR235  PRO236 
 PRO237  PHE238  PHE239  ALA240  ASP241  GLN242  PRO243  ILE244  GLN245  ILE246 
 TYR247  LYS249  ARG256  PHE257  PRO258  SER259  ASN326  PHE327  ASP328  ASP329 
 TYR330 

> <Gold.Protein.RotatedAtoms>
   27.5476   25.6296   66.6156 H   0  0  0  0  0  0  0  0  0  0  0  0  # atno 630  bound_to 627 
   41.5654   21.1496   52.5624 H   0  0  0  0  0  0  0  0  0  0  0  0  # atno 1922 bound_to 1917
   28.9038   27.7621   57.1865 H   0  0  0  0  0  0  0  0  0  0  0  0  # atno 2581 bound_to 2570
   29.4082   26.3929   57.9737 H   0  0  0  0  0  0  0  0  0  0  0  0  # atno 2582 bound_to 2570
   30.5232   27.4320   57.3209 H   0  0  0  0  0  0  0  0  0  0  0  0  # atno 2583 bound_to 2570
   27.0335   28.5494   55.7256 H   0  0  0  0  0  0  0  0  0  0  0  0  # atno 3119 bound_to 3112
   32.8212   28.9055   49.0248 H   0  0  0  0  0  0  0  0  0  0  0  0  # atno 3169 bound_to 3160
   36.8646   38.4969   43.1113 H   0  0  0  0  0  0  0  0  0  0  0  0  # atno 3578 bound_to 3569
   40.8368   38.4061   42.9804 H   0  0  0  0  0  0  0  0  0  0  0  0  # atno 3656 bound_to 3649
   25.7401   37.2154   59.1317 H   0  0  0  0  0  0  0  0  0  0  0  0  # atno 3854 bound_to 3846
   38.9769   21.2140   61.1420 H   0  0  0  0  0  0  0  0  0  0  0  0  # atno 5145 bound_to 5136
   40.4425   39.7467   43.8140 LP  0  0  0  0  0  0  0  0  0  0  0  0  # atno 5461 bound_to 3649
   39.2927   38.9187   43.0022 LP  0  0  0  0  0  0  0  0  0  0  0  0  # atno 5462 bound_to 3649
   35.6066   39.1207   43.9336 LP  0  0  0  0  0  0  0  0  0  0  0  0  # atno 5463 bound_to 3569
   35.6569   39.2315   42.3052 LP  0  0  0  0  0  0  0  0  0  0  0  0  # atno 5464 bound_to 3569
   25.2109   36.2507   57.9323 LP  0  0  0  0  0  0  0  0  0  0  0  0  # atno 5513 bound_to 3846
   24.1525   36.8801   59.0048 LP  0  0  0  0  0  0  0  0  0  0  0  0  # atno 5514 bound_to 3846
   27.7148   29.0543   57.1142 LP  0  0  0  0  0  0  0  0  0  0  0  0  # atno 5515 bound_to 3112
   28.6461   28.4489   55.9172 LP  0  0  0  0  0  0  0  0  0  0  0  0  # atno 5516 bound_to 3112
   40.5565   21.4520   60.8329 LP  0  0  0  0  0  0  0  0  0  0  0  0  # atno 5523 bound_to 5136
   39.7013   22.5812   61.6453 LP  0  0  0  0  0  0  0  0  0  0  0  0  # atno 5524 bound_to 5136
   41.2384   20.6332   54.0706 LP  0  0  0  0  0  0  0  0  0  0  0  0  # atno 5533 bound_to 1917
   42.7261   20.4139   53.4340 LP  0  0  0  0  0  0  0  0  0  0  0  0  # atno 5534 bound_to 1917
   33.1195   30.5017   48.9221 LP  0  0  0  0  0  0  0  0  0  0  0  0  # atno 5563 bound_to 3160
   32.3587   29.7300   47.7005 LP  0  0  0  0  0  0  0  0  0  0  0  0  # atno 5564 bound_to 3160
   27.7349   26.7233   67.8061 LP  0  0  0  0  0  0  0  0  0  0  0  0  # atno 5571 bound_to 627 
   27.8432   25.1275   68.1351 LP  0  0  0  0  0  0  0  0  0  0  0  0  # atno 5572 bound_to 627 

> <Gold.Score>
     Fitness  S(hb_ext) S(vdw_ext)  S(hb_int)    S(int)      intcor
     36.03       1.94      25.18       0.00      -0.53      -0.76

> <Gold.Goldscore.Fitness>
36.0342

> <Gold.Goldscore.Internal.Vdw>
-0.7122

> <Gold.Goldscore.Internal.Torsion>
-0.5824

> <Gold.Goldscore.External.Vdw>
25.1843

> <Gold.Goldscore.Internal.HBond>
0.0000

> <Gold.Goldscore.External.HBond>
1.9354

> <Gold.Goldscore.Internal.Correction>
-0.7650

> <Gold.Goldscore.Hbonds>
donor molecule, donor type, donor heavy atom, donor atom, acceptor molecule, acceptor atom, score
      L1  H     8    22       P1  2601  0.97

> <Gold.Goldscore.Internal.Vdw.Weighted>
-0.7122

> <Gold.Goldscore.Internal.Torsion.Weighted>
-0.5824

> <Gold.Goldscore.External.Vdw.Weighted>
34.6285

> <Gold.Goldscore.Internal.HBond.Weighted>
0.0000

> <Gold.Goldscore.External.HBond.Weighted>
1.9354

> <Gold.Goldscore.Internal.Correction.Weighted>
-0.7650

> <Gold.Rescore>
     Score     S(PLP)   S(hbond)     S(cho)   S(metal)  DE(clash)   DE(tors)     intcor
     27.69     -25.17       0.93       0.00       0.00       0.00       0.13       ----

> <Gold.PLP.Fitness>
27.6886

> <Gold.PLP.PLP>
-25.1713

> <Gold.PLP.part.hbond>
-1.5669

> <Gold.PLP.part.metal>
0.0000

> <Gold.PLP.part.buried>
7.2107

> <Gold.PLP.part.nonpolar>
-33.8126

> <Gold.PLP.part.repulsive>
2.6295

> <Gold.PLP.ligand.clash>
0.0000

> <Gold.PLP.ligand.torsion>
0.1307

> <Gold.PLP.Chemscore.Hbond>
0.9263

> <Gold.PLP.Chemscore.CHOScore>
0.0000

> <Gold.PLP.Chemscore.Metal>
0.0000

> <Gold.Chemscore.Hbonds>
donor molecule, donor type, donor heavy atom, donor atom, acceptor molecule, acceptor atom, score
      L1  H     8    22       P1  2601  0.15

> <Gold.PLP.Chemscore.Internal.Correction>
   9.000000E+99

#       Name:                CT1002167954
#       Creating user name   hitesit
#       Creation time:       Sun Apr 16 22:50:47 2023


#       File generated by GOLD software.
#

@<TRIPOS>MOLECULE
CT1002167954|ligand_prepared|mol2|1|dock10
    29    30     1
SMALL
NO_CHARGES


@<TRIPOS>ATOM
      1 C1          31.7041  18.6123  58.4996 C.3            1 RES1               0.0000
      2 C2          30.7751  17.4010  58.2792 C.ar           1 RES1               0.0000
      3 C3          31.4699  19.5520  57.3205 C.2            1 RES1               0.0000
      4 C4          31.3208  19.2033  59.8518 C.2            1 RES1               0.0000
      5 C5          33.2062  18.2475  58.5462 C.3            1 RES1               0.0000
      6 C6          29.4118  17.4965  58.5416 C.ar           1 RES1               0.0000
      7 C7          31.2656  16.1845  57.8121 C.ar           1 RES1               0.0000
      8 N8          30.7599  20.6930  57.5531 N.am           1 RES1               0.0000
      9 O9          31.8681  19.2770  56.1953 O.2            1 RES1               0.0000
     10 N10         30.7717  20.4587  59.8715 N.am           1 RES1               0.0000
     11 O11         31.4740  18.5866  60.8990 O.2            1 RES1               0.0000
     12 C12         34.1075  19.4091  58.9340 C.3            1 RES1               0.0000
     13 C13         28.5687  16.4160  58.3416 C.ar           1 RES1               0.0000
     14 C14         30.4208  15.1051  57.6130 C.ar           1 RES1               0.0000
     15 C15         30.4455  21.2179  58.7809 C.2            1 RES1               0.0000
     16 C16         29.0724  15.2199  57.8768 C.ar           1 RES1               0.0000
     17 O17         29.9037  22.3152  58.8775 O.2            1 RES1               0.0000
     18 H18         33.3496  17.4332  59.2672 H              1 RES1               0.0000
     19 H19         33.5107  17.8786  57.5590 H              1 RES1               0.0000
     20 H20         28.9977  18.4291  58.9103 H              1 RES1               0.0000
     21 H21         32.3231  16.0709  57.5989 H              1 RES1               0.0000
     22 H22         30.4324  21.2030  56.7390 H              1 RES1               0.0000
     23 H23         30.5892  20.8649  60.7837 H              1 RES1               0.0000
     24 H24         35.1502  19.0990  58.9515 H              1 RES1               0.0000
     25 H25         34.0092  20.2274  58.2238 H              1 RES1               0.0000
     26 H26         33.8490  19.7847  59.9219 H              1 RES1               0.0000
     27 H27         27.5086  16.5111  58.5520 H              1 RES1               0.0000
     28 H28         30.8217  14.1654  57.2476 H              1 RES1               0.0000
     29 H29         28.4117  14.3737  57.7198 H              1 RES1               0.0000
@<TRIPOS>BOND
    1    1    2 1     
    2    1    3 1     
    3    1    4 1     
    4    1    5 1     
    5    2    6 ar    
    6    2    7 ar    
    7    3    8 1     
    8    3    9 2     
    9    4   10 1     
   10    4   11 2     
   11    5   12 1     
   12    5   18 1     
   13    5   19 1     
   14    6   13 ar    
   15    6   20 1     
   16    7   14 ar    
   17    7   21 1     
   18    8   15 1     
   19    8   22 1     
   20   10   15 1     
   21   10   23 1     
   22   12   24 1     
   23   12   25 1     
   24   12   26 1     
   25   13   16 ar    
   26   13   27 1     
   27   14   16 ar    
   28   14   28 1     
   29   15   17 2     
   30   16   29 1     
@<TRIPOS>SUBSTRUCTURE
      1 RES1           1
@<TRIPOS>SET
DONOR_HYDROGENS      STATIC     ATOMS    <user>   **** ""
2 22 23
ATOM$RED        STATIC     ATOMS    COLORGROUP SYSTEM
2 22 23
@<TRIPOS>COMMENT
> <Gold.Version>
2022.3.0

> <Gold.Id.Protein>
unknown|3l9n_clean|pdb

> <Gold.Protein.RotatedTorsions>
[ 3656 3649 3648 3646 ] final -169.82 input   60.01 | X-H torsion
[ 3578 3569 3568 3566 ] final  -86.10 input   59.99 | X-H torsion
[ 3854 3846 3845 3843 ] final  171.85 input   60.02 | X-H torsion
[ 2581 2570 2569 2568 ] final   86.21 input   60.01 | X-H torsion
[ 3119 3112 3110 3107 ] final  113.21 input   60.01 | X-H torsion
[ 5145 5136 5135 5133 ] final   10.25 input   59.99 | X-H torsion
[ 1922 1917 1916 1913 ] final   -5.12 input   59.98 | X-H torsion
[ 3169 3160 3159 3157 ] final    1.82 input   59.99 | X-H torsion
[  630  627  626  623 ] final  158.93 input   60.00 | X-H torsion

> <Gold.Protein.ActiveResidues>
 LEU49   GLY50   THR51   GLY52   SER53   PHE54   GLY55   LEU82   LYS83   GLN84  
 HIS87   GLY126  GLU127  PHE129  SER130  HIS131  LEU132  ARG133  ARG134  GLY136 
 ARG137  ARG165  ASP166  LEU167  LYS168  PRO169  GLU170  ASN171  MET173  ASP184 
 PHE187  TPO197  LEU198  CYS199  GLY200  THR201  PRO202  GLU203  TYR204  LEU205 
 ILE209  ILE210  VAL226  LEU227  TYR229  GLU230  ALA233  GLY234  TYR235  PRO236 
 PRO237  PHE238  PHE239  ALA240  ASP241  GLN242  PRO243  ILE244  GLN245  ILE246 
 TYR247  LYS249  ARG256  PHE257  PRO258  SER259  ASN326  PHE327  ASP328  ASP329 
 TYR330 

> <Gold.Protein.RotatedAtoms>
   27.6820   26.7624   67.5167 H   0  0  0  0  0  0  0  0  0  0  0  0  # atno 630  bound_to 627 
   41.3980   21.1665   52.6531 H   0  0  0  0  0  0  0  0  0  0  0  0  # atno 1922 bound_to 1917
   28.7877   27.6282   57.2697 H   0  0  0  0  0  0  0  0  0  0  0  0  # atno 2581 bound_to 2570
   29.6026   26.3709   57.9794 H   0  0  0  0  0  0  0  0  0  0  0  0  # atno 2582 bound_to 2570
   30.4449   27.5878   57.2320 H   0  0  0  0  0  0  0  0  0  0  0  0  # atno 2583 bound_to 2570
   27.6425   28.3425   55.3933 H   0  0  0  0  0  0  0  0  0  0  0  0  # atno 3119 bound_to 3112
   33.2045   30.0858   49.2874 H   0  0  0  0  0  0  0  0  0  0  0  0  # atno 3169 bound_to 3160
   35.4333   39.2271   43.7688 H   0  0  0  0  0  0  0  0  0  0  0  0  # atno 3578 bound_to 3569
   40.9835   38.5474   43.1084 H   0  0  0  0  0  0  0  0  0  0  0  0  # atno 3656 bound_to 3649
   24.8589   37.3117   59.4431 H   0  0  0  0  0  0  0  0  0  0  0  0  # atno 3854 bound_to 3846
   39.7587   20.9162   60.7771 H   0  0  0  0  0  0  0  0  0  0  0  0  # atno 5145 bound_to 5136
   40.2064   39.7987   43.7996 LP  0  0  0  0  0  0  0  0  0  0  0  0  # atno 5461 bound_to 3649
   39.3811   38.7245   42.8877 LP  0  0  0  0  0  0  0  0  0  0  0  0  # atno 5462 bound_to 3649
   35.8734   39.1211   42.2058 LP  0  0  0  0  0  0  0  0  0  0  0  0  # atno 5463 bound_to 3569
   36.8315   38.4959   43.3710 LP  0  0  0  0  0  0  0  0  0  0  0  0  # atno 5464 bound_to 3569
   25.9209   36.6867   58.3799 LP  0  0  0  0  0  0  0  0  0  0  0  0  # atno 5513 bound_to 3846
   24.3295   36.3471   58.2438 LP  0  0  0  0  0  0  0  0  0  0  0  0  # atno 5514 bound_to 3846
   27.0724   28.9836   56.7757 LP  0  0  0  0  0  0  0  0  0  0  0  0  # atno 5515 bound_to 3112
   28.6746   28.7282   56.5905 LP  0  0  0  0  0  0  0  0  0  0  0  0  # atno 5516 bound_to 3112
   40.5289   22.2660   61.2590 LP  0  0  0  0  0  0  0  0  0  0  0  0  # atno 5523 bound_to 5136
   38.9416   22.0670   61.5868 LP  0  0  0  0  0  0  0  0  0  0  0  0  # atno 5524 bound_to 5136
   41.3875   20.5488   54.1586 LP  0  0  0  0  0  0  0  0  0  0  0  0  # atno 5533 bound_to 1917
   42.7458   20.4812   53.2547 LP  0  0  0  0  0  0  0  0  0  0  0  0  # atno 5534 bound_to 1917
   32.5285   30.2529   47.8169 LP  0  0  0  0  0  0  0  0  0  0  0  0  # atno 5563 bound_to 3160
   32.5635   28.7897   48.5412 LP  0  0  0  0  0  0  0  0  0  0  0  0  # atno 5564 bound_to 3160
   27.8707   25.3594   68.3196 LP  0  0  0  0  0  0  0  0  0  0  0  0  # atno 5571 bound_to 627 
   27.5720   25.3508   66.7142 LP  0  0  0  0  0  0  0  0  0  0  0  0  # atno 5572 bound_to 627 

> <Gold.Score>
     Fitness  S(hb_ext) S(vdw_ext)  S(hb_int)    S(int)      intcor
     35.64       0.67      25.49       0.00      -0.07      -0.76

> <Gold.Goldscore.Fitness>
35.6412

> <Gold.Goldscore.Internal.Vdw>
-0.3815

> <Gold.Goldscore.Internal.Torsion>
-0.4473

> <Gold.Goldscore.External.Vdw>
25.4897

> <Gold.Goldscore.Internal.HBond>
0.0000

> <Gold.Goldscore.External.HBond>
0.6666

> <Gold.Goldscore.Internal.Correction>
-0.7551

> <Gold.Goldscore.Hbonds>
donor molecule, donor type, donor heavy atom, donor atom, acceptor molecule, acceptor atom, score
      L1  H     8    22       P1  2620  0.33

> <Gold.Goldscore.Internal.Vdw.Weighted>
-0.3815

> <Gold.Goldscore.Internal.Torsion.Weighted>
-0.4473

> <Gold.Goldscore.External.Vdw.Weighted>
35.0483

> <Gold.Goldscore.Internal.HBond.Weighted>
0.0000

> <Gold.Goldscore.External.HBond.Weighted>
0.6666

> <Gold.Goldscore.Internal.Correction.Weighted>
-0.7551

> <Gold.Rescore>
     Score     S(PLP)   S(hbond)     S(cho)   S(metal)  DE(clash)   DE(tors)     intcor
     33.28     -30.75       1.00       0.00       0.00       0.00       0.24       ----

> <Gold.PLP.Fitness>
33.2811

> <Gold.PLP.PLP>
-30.7523

> <Gold.PLP.part.hbond>
0.1559

> <Gold.PLP.part.metal>
0.0000

> <Gold.PLP.part.buried>
0.7081

> <Gold.PLP.part.nonpolar>
-32.3996

> <Gold.PLP.part.repulsive>
0.3813

> <Gold.PLP.ligand.clash>
0.0000

> <Gold.PLP.ligand.torsion>
0.2356

> <Gold.PLP.Chemscore.Hbond>
1.0000

> <Gold.PLP.Chemscore.CHOScore>
0.0000

> <Gold.PLP.Chemscore.Metal>
0.0000

> <Gold.Chemscore.Hbonds>
donor molecule, donor type, donor heavy atom, donor atom, acceptor molecule, acceptor atom, score
      L1  H     8    22       P1  2620  1.00

> <Gold.PLP.Chemscore.Internal.Correction>
   9.000000E+99

#       Name:                CT1002167954
#       Creating user name   hitesit
#       Creation time:       Sun Apr 16 22:50:42 2023


#       File generated by GOLD software.
#

@<TRIPOS>MOLECULE
CT1002167954|ligand_prepared|mol2|1|dock6
    29    30     1
SMALL
NO_CHARGES


@<TRIPOS>ATOM
      1 C1          32.3825  18.0938  58.5975 C.3            1 RES1               0.0000
      2 C2          32.5956  16.6806  58.0176 C.ar           1 RES1               0.0000
      3 C3          33.5581  18.3541  59.5347 C.2            1 RES1               0.0000
      4 C4          32.3177  19.0396  57.4033 C.2            1 RES1               0.0000
      5 C5          31.0702  18.2482  59.4009 C.3            1 RES1               0.0000
      6 C6          33.8372  16.2996  57.5176 C.ar           1 RES1               0.0000
      7 C7          31.5627  15.7478  57.9785 C.ar           1 RES1               0.0000
      8 N8          34.5231  19.2204  59.1124 N.am           1 RES1               0.0000
      9 O9          33.6570  17.7779  60.6110 O.2            1 RES1               0.0000
     10 N10         33.3176  19.9660  57.2629 N.am           1 RES1               0.0000
     11 O11         31.4187  18.9799  56.5735 O.2            1 RES1               0.0000
     12 C12         30.9475  19.5798  60.1247 C.3            1 RES1               0.0000
     13 C13         34.0398  15.0311  56.9999 C.ar           1 RES1               0.0000
     14 C14         31.7674  14.4797  57.4601 C.ar           1 RES1               0.0000
     15 C15         34.4337  20.0791  58.0464 C.2            1 RES1               0.0000
     16 C16         33.0053  14.1202  56.9712 C.ar           1 RES1               0.0000
     17 O17         35.3165  20.9028  57.8244 O.2            1 RES1               0.0000
     18 H18         30.2212  18.1397  58.7147 H              1 RES1               0.0000
     19 H19         31.0106  17.4386  60.1387 H              1 RES1               0.0000
     20 H20         34.6625  17.0037  57.5296 H              1 RES1               0.0000
     21 H21         30.5801  16.0089  58.3566 H              1 RES1               0.0000
     22 H22         35.3915  19.2306  59.6378 H              1 RES1               0.0000
     23 H23         33.2209  20.6333  56.5042 H              1 RES1               0.0000
     24 H24         30.0091  19.6360  60.6726 H              1 RES1               0.0000
     25 H25         31.7622  19.7099  60.8340 H              1 RES1               0.0000
     26 H26         30.9776  20.4069  59.4184 H              1 RES1               0.0000
     27 H27         35.0156  14.7535  56.6152 H              1 RES1               0.0000
     28 H28         30.9502  13.7663  57.4389 H              1 RES1               0.0000
     29 H29         33.1644  13.1264  56.5660 H              1 RES1               0.0000
@<TRIPOS>BOND
    1    1    2 1     
    2    1    3 1     
    3    1    4 1     
    4    1    5 1     
    5    2    6 ar    
    6    2    7 ar    
    7    3    8 1     
    8    3    9 2     
    9    4   10 1     
   10    4   11 2     
   11    5   12 1     
   12    5   18 1     
   13    5   19 1     
   14    6   13 ar    
   15    6   20 1     
   16    7   14 ar    
   17    7   21 1     
   18    8   15 1     
   19    8   22 1     
   20   10   15 1     
   21   10   23 1     
   22   12   24 1     
   23   12   25 1     
   24   12   26 1     
   25   13   16 ar    
   26   13   27 1     
   27   14   16 ar    
   28   14   28 1     
   29   15   17 2     
   30   16   29 1     
@<TRIPOS>SUBSTRUCTURE
      1 RES1           1
@<TRIPOS>SET
DONOR_HYDROGENS      STATIC     ATOMS    <user>   **** ""
2 22 23
ATOM$RED        STATIC     ATOMS    COLORGROUP SYSTEM
2 22 23
@<TRIPOS>COMMENT
> <Gold.Version>
2022.3.0

> <Gold.Id.Protein>
unknown|3l9n_clean|pdb

> <Gold.Protein.RotatedTorsions>
[ 3656 3649 3648 3646 ] final   80.47 input   60.01 | X-H torsion
[ 3578 3569 3568 3566 ] final -136.59 input   59.99 | X-H torsion
[ 3854 3846 3845 3843 ] final    3.48 input   60.02 | X-H torsion
[ 2581 2570 2569 2568 ] final  102.20 input   60.01 | X-H torsion
[ 3119 3112 3110 3107 ] final -113.86 input   60.01 | X-H torsion
[ 5145 5136 5135 5133 ] final  123.18 input   59.99 | X-H torsion
[ 1922 1917 1916 1913 ] final   30.28 input   59.98 | X-H torsion
[ 3169 3160 3159 3157 ] final -118.61 input   59.99 | X-H torsion
[  630  627  626  623 ] final   77.25 input   60.00 | X-H torsion

> <Gold.Protein.ActiveResidues>
 LEU49   GLY50   THR51   GLY52   SER53   PHE54   GLY55   LEU82   LYS83   GLN84  
 HIS87   GLY126  GLU127  PHE129  SER130  HIS131  LEU132  ARG133  ARG134  GLY136 
 ARG137  ARG165  ASP166  LEU167  LYS168  PRO169  GLU170  ASN171  MET173  ASP184 
 PHE187  TPO197  LEU198  CYS199  GLY200  THR201  PRO202  GLU203  TYR204  LEU205 
 ILE209  ILE210  VAL226  LEU227  TYR229  GLU230  ALA233  GLY234  TYR235  PRO236 
 PRO237  PHE238  PHE239  ALA240  ASP241  GLN242  PRO243  ILE244  GLN245  ILE246 
 TYR247  LYS249  ARG256  PHE257  PRO258  SER259  ASN326  PHE327  ASP328  ASP329 
 TYR330 

> <Gold.Protein.RotatedAtoms>
   27.8750   25.9668   68.4275 H   0  0  0  0  0  0  0  0  0  0  0  0  # atno 630  bound_to 627 
   41.9314   21.0641   52.4825 H   0  0  0  0  0  0  0  0  0  0  0  0  # atno 1922 bound_to 1917
   28.6857   27.4180   57.3972 H   0  0  0  0  0  0  0  0  0  0  0  0  # atno 2581 bound_to 2570
   29.8664   26.3963   57.9547 H   0  0  0  0  0  0  0  0  0  0  0  0  # atno 2582 bound_to 2570
   30.2832   27.7725   57.1292 H   0  0  0  0  0  0  0  0  0  0  0  0  # atno 2583 bound_to 2570
   28.5733   28.8111   56.7566 H   0  0  0  0  0  0  0  0  0  0  0  0  # atno 3119 bound_to 3112
   32.5256   30.2437   47.8200 H   0  0  0  0  0  0  0  0  0  0  0  0  # atno 3169 bound_to 3160
   35.2316   39.4018   43.0161 H   0  0  0  0  0  0  0  0  0  0  0  0  # atno 3578 bound_to 3569
   40.3706   39.7611   43.8112 H   0  0  0  0  0  0  0  0  0  0  0  0  # atno 3656 bound_to 3649
   25.3932   36.3069   57.9674 H   0  0  0  0  0  0  0  0  0  0  0  0  # atno 3854 bound_to 3846
   38.8997   21.9656   61.5494 H   0  0  0  0  0  0  0  0  0  0  0  0  # atno 5145 bound_to 5136
   39.3134   38.8586   42.9654 LP  0  0  0  0  0  0  0  0  0  0  0  0  # atno 5461 bound_to 3649
   40.8915   38.4418   43.0140 LP  0  0  0  0  0  0  0  0  0  0  0  0  # atno 5462 bound_to 3649
   36.5600   38.7311   42.3578 LP  0  0  0  0  0  0  0  0  0  0  0  0  # atno 5463 bound_to 3569
   36.3480   38.7099   43.9769 LP  0  0  0  0  0  0  0  0  0  0  0  0  # atno 5464 bound_to 3569
   24.1080   36.7636   58.8555 LP  0  0  0  0  0  0  0  0  0  0  0  0  # atno 5513 bound_to 3846
   25.6046   37.2817   59.2536 LP  0  0  0  0  0  0  0  0  0  0  0  0  # atno 5514 bound_to 3846
   27.8520   28.3140   55.3855 LP  0  0  0  0  0  0  0  0  0  0  0  0  # atno 5515 bound_to 3112
   26.9572   28.9256   56.6069 LP  0  0  0  0  0  0  0  0  0  0  0  0  # atno 5516 bound_to 3112
   39.8706   20.9321   60.7514 LP  0  0  0  0  0  0  0  0  0  0  0  0  # atno 5523 bound_to 5136
   40.4649   22.3442   61.3165 LP  0  0  0  0  0  0  0  0  0  0  0  0  # atno 5524 bound_to 5136
   41.0195   20.8126   53.8067 LP  0  0  0  0  0  0  0  0  0  0  0  0  # atno 5533 bound_to 1917
   42.5764   20.3206   53.7785 LP  0  0  0  0  0  0  0  0  0  0  0  0  # atno 5534 bound_to 1917
   32.5665   28.7890   48.5477 LP  0  0  0  0  0  0  0  0  0  0  0  0  # atno 5563 bound_to 3160
   33.2095   30.0945   49.2887 LP  0  0  0  0  0  0  0  0  0  0  0  0  # atno 5564 bound_to 3160
   27.6696   24.9487   67.1745 LP  0  0  0  0  0  0  0  0  0  0  0  0  # atno 5571 bound_to 627 
   27.5787   26.5626   66.9422 LP  0  0  0  0  0  0  0  0  0  0  0  0  # atno 5572 bound_to 627 

> <Gold.Score>
     Fitness  S(hb_ext) S(vdw_ext)  S(hb_int)    S(int)      intcor
     34.67       2.00      23.82       0.00      -0.08      -0.76

> <Gold.Goldscore.Fitness>
34.6715

> <Gold.Goldscore.Internal.Vdw>
-0.3829

> <Gold.Goldscore.Internal.Torsion>
-0.4633

> <Gold.Goldscore.External.Vdw>
23.8201

> <Gold.Goldscore.Internal.HBond>
0.0000

> <Gold.Goldscore.External.HBond>
2.0000

> <Gold.Goldscore.Internal.Correction>
-0.7650

> <Gold.Goldscore.Hbonds>
donor molecule, donor type, donor heavy atom, donor atom, acceptor molecule, acceptor atom, score
      L1  H    10    23       P1  2601  1.00

> <Gold.Goldscore.Internal.Vdw.Weighted>
-0.3829

> <Gold.Goldscore.Internal.Torsion.Weighted>
-0.4633

> <Gold.Goldscore.External.Vdw.Weighted>
32.7527

> <Gold.Goldscore.Internal.HBond.Weighted>
0.0000

> <Gold.Goldscore.External.HBond.Weighted>
2.0000

> <Gold.Goldscore.Internal.Correction.Weighted>
-0.7650

> <Gold.Rescore>
     Score     S(PLP)   S(hbond)     S(cho)   S(metal)  DE(clash)   DE(tors)     intcor
     36.83     -36.09       0.99       0.00       0.00       0.00       1.12       ----

> <Gold.PLP.Fitness>
36.8320

> <Gold.PLP.PLP>
-36.0909

> <Gold.PLP.part.hbond>
-1.9586

> <Gold.PLP.part.metal>
0.0000

> <Gold.PLP.part.buried>
-0.7981

> <Gold.PLP.part.nonpolar>
-34.3803

> <Gold.PLP.part.repulsive>
0.4177

> <Gold.PLP.ligand.clash>
0.0000

> <Gold.PLP.ligand.torsion>
1.1174

> <Gold.PLP.Chemscore.Hbond>
0.9920

> <Gold.PLP.Chemscore.CHOScore>
0.0000

> <Gold.PLP.Chemscore.Metal>
0.0000

> <Gold.Chemscore.Hbonds>
donor molecule, donor type, donor heavy atom, donor atom, acceptor molecule, acceptor atom, score
      L1  H    10    23       P1  2601  1.00

> <Gold.PLP.Chemscore.Internal.Correction>
   9.000000E+99

#       Name:                CT1002167954
#       Creating user name   hitesit
#       Creation time:       Sun Apr 16 22:50:36 2023


#       File generated by GOLD software.
#

@<TRIPOS>MOLECULE
CT1002167954|ligand_prepared|mol2|1|dock1
    29    30     1
SMALL
NO_CHARGES


@<TRIPOS>ATOM
      1 C1          32.7847  19.4293  58.7201 C.3            1 RES1               0.0000
      2 C2          31.3992  19.4597  59.3971 C.ar           1 RES1               0.0000
      3 C3          33.7771  18.9947  59.7946 C.2            1 RES1               0.0000
      4 C4          32.6674  18.4568  57.5517 C.2            1 RES1               0.0000
      5 C5          33.2361  20.7979  58.1591 C.3            1 RES1               0.0000
      6 C6          30.5890  18.3281  59.4042 C.ar           1 RES1               0.0000
      7 C7          30.9195  20.6090  60.0197 C.ar           1 RES1               0.0000
      8 N8          34.2721  17.7260  59.7216 N.am           1 RES1               0.0000
      9 O9          34.0903  19.7405  60.7144 O.2            1 RES1               0.0000
     10 N10         33.3997  17.2997  57.6034 N.am           1 RES1               0.0000
     11 O11         31.9346  18.6743  56.5946 O.2            1 RES1               0.0000
     12 C12         34.4867  20.7249  57.2973 C.3            1 RES1               0.0000
     13 C13         29.3457  18.3440  60.0142 C.ar           1 RES1               0.0000
     14 C14         29.6757  20.6227  60.6290 C.ar           1 RES1               0.0000
     15 C15         34.1731  16.8760  58.6496 C.2            1 RES1               0.0000
     16 C16         28.8884  19.4910  60.6274 C.ar           1 RES1               0.0000
     17 O17         34.7583  15.7968  58.6443 O.2            1 RES1               0.0000
     18 H18         32.4195  21.2212  57.5614 H              1 RES1               0.0000
     19 H19         33.4250  21.4786  58.9984 H              1 RES1               0.0000
     20 H20         30.9310  17.4171  58.9246 H              1 RES1               0.0000
     21 H21         31.5213  21.5114  60.0325 H              1 RES1               0.0000
     22 H22         34.7609  17.3770  60.5398 H              1 RES1               0.0000
     23 H23         33.3652  16.6987  56.7861 H              1 RES1               0.0000
     24 H24         34.7598  21.7117  56.9295 H              1 RES1               0.0000
     25 H25         35.3258  20.3316  57.8675 H              1 RES1               0.0000
     26 H26         34.3262  20.0757  56.4390 H              1 RES1               0.0000
     27 H27         28.7293  17.4511  60.0090 H              1 RES1               0.0000
     28 H28         29.3196  21.5278  61.1098 H              1 RES1               0.0000
     29 H29         27.9145  19.5030  61.1055 H              1 RES1               0.0000
@<TRIPOS>BOND
    1    1    2 1     
    2    1    3 1     
    3    1    4 1     
    4    1    5 1     
    5    2    6 ar    
    6    2    7 ar    
    7    3    8 1     
    8    3    9 2     
    9    4   10 1     
   10    4   11 2     
   11    5   12 1     
   12    5   18 1     
   13    5   19 1     
   14    6   13 ar    
   15    6   20 1     
   16    7   14 ar    
   17    7   21 1     
   18    8   15 1     
   19    8   22 1     
   20   10   15 1     
   21   10   23 1     
   22   12   24 1     
   23   12   25 1     
   24   12   26 1     
   25   13   16 ar    
   26   13   27 1     
   27   14   16 ar    
   28   14   28 1     
   29   15   17 2     
   30   16   29 1     
@<TRIPOS>SUBSTRUCTURE
      1 RES1           1
@<TRIPOS>SET
DONOR_HYDROGENS      STATIC     ATOMS    <user>   **** ""
2 22 23
ATOM$RED        STATIC     ATOMS    COLORGROUP SYSTEM
2 22 23
@<TRIPOS>COMMENT
> <Gold.Version>
2022.3.0

> <Gold.Id.Protein>
unknown|3l9n_clean|pdb

> <Gold.Protein.RotatedTorsions>
[ 3656 3649 3648 3646 ] final  179.95 input   60.01 | X-H torsion
[ 3578 3569 3568 3566 ] final -100.39 input   59.99 | X-H torsion
[ 3854 3846 3845 3843 ] final   83.83 input   60.02 | X-H torsion
[ 2581 2570 2569 2568 ] final   14.53 input   60.01 | X-H torsion
[ 3119 3112 3110 3107 ] final  121.73 input   60.01 | X-H torsion
[ 5145 5136 5135 5133 ] final   73.56 input   59.99 | X-H torsion
[ 1922 1917 1916 1913 ] final   51.49 input   59.98 | X-H torsion
[ 3169 3160 3159 3157 ] final  140.06 input   59.99 | X-H torsion
[  630  627  626  623 ] final  101.48 input   60.00 | X-H torsion

> <Gold.Protein.ActiveResidues>
 LEU49   GLY50   THR51   GLY52   SER53   PHE54   GLY55   LEU82   LYS83   GLN84  
 HIS87   GLY126  GLU127  PHE129  SER130  HIS131  LEU132  ARG133  ARG134  GLY136 
 ARG137  ARG165  ASP166  LEU167  LYS168  PRO169  GLU170  ASN171  MET173  ASP184 
 PHE187  TPO197  LEU198  CYS199  GLY200  THR201  PRO202  GLU203  TYR204  LEU205 
 ILE209  ILE210  VAL226  LEU227  TYR229  GLU230  ALA233  GLY234  TYR235  PRO236 
 PRO237  PHE238  PHE239  ALA240  ASP241  GLN242  PRO243  ILE244  GLN245  ILE246 
 TYR247  LYS249  ARG256  PHE257  PRO258  SER259  ASN326  PHE327  ASP328  ASP329 
 TYR330 

> <Gold.Protein.RotatedAtoms>
   27.8391   26.3342   68.2926 H   0  0  0  0  0  0  0  0  0  0  0  0  # atno 630  bound_to 627 
   42.2483   20.9397   52.5357 H   0  0  0  0  0  0  0  0  0  0  0  0  # atno 1922 bound_to 1917
   29.8142   27.9987   57.0134 H   0  0  0  0  0  0  0  0  0  0  0  0  # atno 2581 bound_to 2570
   28.7006   26.9586   57.6666 H   0  0  0  0  0  0  0  0  0  0  0  0  # atno 2582 bound_to 2570
   30.3201   26.6300   57.8008 H   0  0  0  0  0  0  0  0  0  0  0  0  # atno 2583 bound_to 2570
   27.7804   28.3245   55.3871 H   0  0  0  0  0  0  0  0  0  0  0  0  # atno 3119 bound_to 3112
   32.4511   28.8724   48.2781 H   0  0  0  0  0  0  0  0  0  0  0  0  # atno 3169 bound_to 3160
   35.3166   39.3069   43.5838 H   0  0  0  0  0  0  0  0  0  0  0  0  # atno 3578 bound_to 3569
   41.0549   38.6642   43.2037 H   0  0  0  0  0  0  0  0  0  0  0  0  # atno 3656 bound_to 3649
   25.9420   36.9971   58.7937 H   0  0  0  0  0  0  0  0  0  0  0  0  # atno 3854 bound_to 3846
   38.9374   21.2719   61.1825 H   0  0  0  0  0  0  0  0  0  0  0  0  # atno 5145 bound_to 5136
   40.0412   39.8048   43.7688 LP  0  0  0  0  0  0  0  0  0  0  0  0  # atno 5461 bound_to 3649
   39.4743   38.6007   42.8225 LP  0  0  0  0  0  0  0  0  0  0  0  0  # atno 5462 bound_to 3649
   36.0784   39.0110   42.1766 LP  0  0  0  0  0  0  0  0  0  0  0  0  # atno 5463 bound_to 3569
   36.7440   38.5256   43.5865 LP  0  0  0  0  0  0  0  0  0  0  0  0  # atno 5464 bound_to 3569
   24.7617   36.2216   57.9846 LP  0  0  0  0  0  0  0  0  0  0  0  0  # atno 5513 bound_to 3846
   24.3984   37.1289   59.2928 LP  0  0  0  0  0  0  0  0  0  0  0  0  # atno 5514 bound_to 3846
   26.9920   28.9469   56.6670 LP  0  0  0  0  0  0  0  0  0  0  0  0  # atno 5515 bound_to 3112
   28.6162   28.7829   56.7056 LP  0  0  0  0  0  0  0  0  0  0  0  0  # atno 5516 bound_to 3112
   40.5170   21.3847   60.8090 LP  0  0  0  0  0  0  0  0  0  0  0  0  # atno 5523 bound_to 5136
   39.7806   22.5901   61.6284 LP  0  0  0  0  0  0  0  0  0  0  0  0  # atno 5524 bound_to 5136
   40.9406   20.9627   53.5039 LP  0  0  0  0  0  0  0  0  0  0  0  0  # atno 5533 bound_to 1917
   42.3361   20.2958   54.0277 LP  0  0  0  0  0  0  0  0  0  0  0  0  # atno 5534 bound_to 1917
   33.1938   29.8048   49.3855 LP  0  0  0  0  0  0  0  0  0  0  0  0  # atno 5563 bound_to 3160
   32.6573   30.4603   47.9894 LP  0  0  0  0  0  0  0  0  0  0  0  0  # atno 5564 bound_to 3160
   27.7429   24.8851   67.5581 LP  0  0  0  0  0  0  0  0  0  0  0  0  # atno 5571 bound_to 627 
   27.5416   26.2563   66.6945 LP  0  0  0  0  0  0  0  0  0  0  0  0  # atno 5572 bound_to 627 

> <Gold.Score>
     Fitness  S(hb_ext) S(vdw_ext)  S(hb_int)    S(int)      intcor
     34.47       0.00      25.43       0.00      -0.49      -0.76

> <Gold.Goldscore.Fitness>
34.4717

> <Gold.Goldscore.Internal.Vdw>
-0.7464

> <Gold.Goldscore.Internal.Torsion>
-0.5070

> <Gold.Goldscore.External.Vdw>
25.4255

> <Gold.Goldscore.Internal.HBond>
0.0000

> <Gold.Goldscore.External.HBond>
0.0000

> <Gold.Goldscore.Internal.Correction>
-0.7650

> <Gold.Goldscore.Internal.Vdw.Weighted>
-0.7464

> <Gold.Goldscore.Internal.Torsion.Weighted>
-0.5070

> <Gold.Goldscore.External.Vdw.Weighted>
34.9601

> <Gold.Goldscore.Internal.HBond.Weighted>
0.0000

> <Gold.Goldscore.External.HBond.Weighted>
0.0000

> <Gold.Goldscore.Internal.Correction.Weighted>
-0.7650

> <Gold.Rescore>
     Score     S(PLP)   S(hbond)     S(cho)   S(metal)  DE(clash)   DE(tors)     intcor
     25.47     -27.73       0.00       0.00       0.00       0.00       1.13       ----

> <Gold.PLP.Fitness>
25.4669

> <Gold.PLP.PLP>
-27.7319

> <Gold.PLP.part.hbond>
-0.9527

> <Gold.PLP.part.metal>
0.0000

> <Gold.PLP.part.buried>
6.9409

> <Gold.PLP.part.nonpolar>
-33.5358

> <Gold.PLP.part.repulsive>
0.1519

> <Gold.PLP.ligand.clash>
0.0000

> <Gold.PLP.ligand.torsion>
1.1325

> <Gold.PLP.Chemscore.Hbond>
0.0000

> <Gold.PLP.Chemscore.CHOScore>
0.0000

> <Gold.PLP.Chemscore.Metal>
0.0000

> <Gold.PLP.Chemscore.Internal.Correction>
   9.000000E+99

#       Name:                CT1002167954
#       Creating user name   hitesit
#       Creation time:       Sun Apr 16 22:50:38 2023


#       File generated by GOLD software.
#

@<TRIPOS>MOLECULE
CT1002167954|ligand_prepared|mol2|1|dock2
    29    30     1
SMALL
NO_CHARGES


@<TRIPOS>ATOM
      1 C1          31.6272  19.0065  59.0619 C.3            1 RES1               0.0000
      2 C2          30.5919  20.0178  59.5952 C.ar           1 RES1               0.0000
      3 C3          32.2050  19.6163  57.7882 C.2            1 RES1               0.0000
      4 C4          32.6482  18.8128  60.1776 C.2            1 RES1               0.0000
      5 C5          31.0287  17.6230  58.7165 C.3            1 RES1               0.0000
      6 C6          30.8832  21.3782  59.6303 C.ar           1 RES1               0.0000
      7 C7          29.3426  19.6064  60.0520 C.ar           1 RES1               0.0000
      8 N8          33.4720  20.1177  57.8461 N.am           1 RES1               0.0000
      9 O9          31.5447  19.6918  56.7593 O.2            1 RES1               0.0000
     10 N10         33.9311  19.2399  59.9552 N.am           1 RES1               0.0000
     11 O11         32.3493  18.3093  61.2535 O.2            1 RES1               0.0000
     12 C12         32.0054  16.6892  58.0192 C.3            1 RES1               0.0000
     13 C13         29.9581  22.2945  60.1023 C.ar           1 RES1               0.0000
     14 C14         28.4190  20.5245  60.5238 C.ar           1 RES1               0.0000
     15 C15         34.3820  19.9114  58.8516 C.2            1 RES1               0.0000
     16 C16         28.7254  21.8684  60.5489 C.ar           1 RES1               0.0000
     17 O17         35.5379  20.3117  58.7479 O.2            1 RES1               0.0000
     18 H18         30.6841  17.1462  59.6424 H              1 RES1               0.0000
     19 H19         30.1552  17.7679  58.0689 H              1 RES1               0.0000
     20 H20         31.8491  21.7319  59.2853 H              1 RES1               0.0000
     21 H21         29.0802  18.5540  60.0426 H              1 RES1               0.0000
     22 H22         33.7704  20.6999  57.0700 H              1 RES1               0.0000
     23 H23         34.6132  19.0385  60.6795 H              1 RES1               0.0000
     24 H24         31.5350  15.7331  57.7996 H              1 RES1               0.0000
     25 H25         32.3494  17.1210  57.0816 H              1 RES1               0.0000
     26 H26         32.8752  16.5030  58.6459 H              1 RES1               0.0000
     27 H27         30.2046  23.3510  60.1212 H              1 RES1               0.0000
     28 H28         27.4503  20.1846  60.8749 H              1 RES1               0.0000
     29 H29         28.0007  22.5865  60.9182 H              1 RES1               0.0000
@<TRIPOS>BOND
    1    1    2 1     
    2    1    3 1     
    3    1    4 1     
    4    1    5 1     
    5    2    6 ar    
    6    2    7 ar    
    7    3    8 1     
    8    3    9 2     
    9    4   10 1     
   10    4   11 2     
   11    5   12 1     
   12    5   18 1     
   13    5   19 1     
   14    6   13 ar    
   15    6   20 1     
   16    7   14 ar    
   17    7   21 1     
   18    8   15 1     
   19    8   22 1     
   20   10   15 1     
   21   10   23 1     
   22   12   24 1     
   23   12   25 1     
   24   12   26 1     
   25   13   16 ar    
   26   13   27 1     
   27   14   16 ar    
   28   14   28 1     
   29   15   17 2     
   30   16   29 1     
@<TRIPOS>SUBSTRUCTURE
      1 RES1           1
@<TRIPOS>SET
DONOR_HYDROGENS      STATIC     ATOMS    <user>   **** ""
2 22 23
ATOM$RED        STATIC     ATOMS    COLORGROUP SYSTEM
2 22 23
@<TRIPOS>COMMENT
> <Gold.Version>
2022.3.0

> <Gold.Id.Protein>
unknown|3l9n_clean|pdb

> <Gold.Protein.RotatedTorsions>
[ 3656 3649 3648 3646 ] final   94.87 input   60.01 | X-H torsion
[ 3578 3569 3568 3566 ] final   32.12 input   59.99 | X-H torsion
[ 3854 3846 3845 3843 ] final  -76.15 input   60.02 | X-H torsion
[ 2581 2570 2569 2568 ] final  -56.82 input   60.01 | X-H torsion
[ 3119 3112 3110 3107 ] final  -47.10 input   60.01 | X-H torsion
[ 5145 5136 5135 5133 ] final   84.98 input   59.99 | X-H torsion
[ 1922 1917 1916 1913 ] final   47.54 input   59.98 | X-H torsion
[ 3169 3160 3159 3157 ] final  101.74 input   59.99 | X-H torsion
[  630  627  626  623 ] final   73.37 input   60.00 | X-H torsion

> <Gold.Protein.ActiveResidues>
 LEU49   GLY50   THR51   GLY52   SER53   PHE54   GLY55   LEU82   LYS83   GLN84  
 HIS87   GLY126  GLU127  PHE129  SER130  HIS131  LEU132  ARG133  ARG134  GLY136 
 ARG137  ARG165  ASP166  LEU167  LYS168  PRO169  GLU170  ASN171  MET173  ASP184 
 PHE187  TPO197  LEU198  CYS199  GLY200  THR201  PRO202  GLU203  TYR204  LEU205 
 ILE209  ILE210  VAL226  LEU227  TYR229  GLU230  ALA233  GLY234  TYR235  PRO236 
 PRO237  PHE238  PHE239  ALA240  ASP241  GLN242  PRO243  ILE244  GLN245  ILE246 
 TYR247  LYS249  ARG256  PHE257  PRO258  SER259  ASN326  PHE327  ASP328  ASP329 
 TYR330 

> <Gold.Protein.RotatedAtoms>
   27.8781   25.9038   68.4344 H   0  0  0  0  0  0  0  0  0  0  0  0  # atno 630  bound_to 627 
   42.1922   20.9656   52.5170 H   0  0  0  0  0  0  0  0  0  0  0  0  # atno 1922 bound_to 1917
   30.5625   27.2730   57.4132 H   0  0  0  0  0  0  0  0  0  0  0  0  # atno 2581 bound_to 2570
   29.0437   27.8686   57.1179 H   0  0  0  0  0  0  0  0  0  0  0  0  # atno 2582 bound_to 2570
   29.2290   26.4462   57.9495 H   0  0  0  0  0  0  0  0  0  0  0  0  # atno 2583 bound_to 2570
   27.6316   29.0568   57.0934 H   0  0  0  0  0  0  0  0  0  0  0  0  # atno 3119 bound_to 3112
   32.7094   28.8200   48.8329 H   0  0  0  0  0  0  0  0  0  0  0  0  # atno 3169 bound_to 3160
   36.8165   38.4991   43.3969 H   0  0  0  0  0  0  0  0  0  0  0  0  # atno 3578 bound_to 3569
   40.5899   39.6785   43.8010 H   0  0  0  0  0  0  0  0  0  0  0  0  # atno 3656 bound_to 3649
   24.2558   36.4061   58.3351 H   0  0  0  0  0  0  0  0  0  0  0  0  # atno 3854 bound_to 3846
   38.8698   21.4182   61.2761 H   0  0  0  0  0  0  0  0  0  0  0  0  # atno 5145 bound_to 5136
   39.2664   39.0541   43.0895 LP  0  0  0  0  0  0  0  0  0  0  0  0  # atno 5461 bound_to 3649
   40.7176   38.3296   42.9001 LP  0  0  0  0  0  0  0  0  0  0  0  0  # atno 5462 bound_to 3649
   35.4132   39.2423   43.7523 LP  0  0  0  0  0  0  0  0  0  0  0  0  # atno 5463 bound_to 3569
   35.8987   39.1078   42.1990 LP  0  0  0  0  0  0  0  0  0  0  0  0  # atno 5464 bound_to 3569
   24.9877   37.3355   59.4531 LP  0  0  0  0  0  0  0  0  0  0  0  0  # atno 5513 bound_to 3846
   25.8698   36.6100   58.2860 LP  0  0  0  0  0  0  0  0  0  0  0  0  # atno 5514 bound_to 3846
   28.6785   28.4764   55.9914 LP  0  0  0  0  0  0  0  0  0  0  0  0  # atno 5515 bound_to 3112
   27.0796   28.5155   55.6617 LP  0  0  0  0  0  0  0  0  0  0  0  0  # atno 5516 bound_to 3112
   40.4045   21.2410   60.7656 LP  0  0  0  0  0  0  0  0  0  0  0  0  # atno 5523 bound_to 5136
   39.9612   22.5866   61.5777 LP  0  0  0  0  0  0  0  0  0  0  0  0  # atno 5524 bound_to 5136
   40.9461   20.9365   53.5632 LP  0  0  0  0  0  0  0  0  0  0  0  0  # atno 5533 bound_to 1917
   42.3871   20.2960   53.9873 LP  0  0  0  0  0  0  0  0  0  0  0  0  # atno 5534 bound_to 1917
   33.1758   30.3552   49.1032 LP  0  0  0  0  0  0  0  0  0  0  0  0  # atno 5563 bound_to 3160
   32.4150   29.9627   47.7127 LP  0  0  0  0  0  0  0  0  0  0  0  0  # atno 5564 bound_to 3160
   27.6581   24.9740   67.1169 LP  0  0  0  0  0  0  0  0  0  0  0  0  # atno 5571 bound_to 627 
   27.5870   26.6008   66.9929 LP  0  0  0  0  0  0  0  0  0  0  0  0  # atno 5572 bound_to 627 

> <Gold.Score>
     Fitness  S(hb_ext) S(vdw_ext)  S(hb_int)    S(int)      intcor
     34.03       1.96      23.42       0.00      -0.12      -0.76

> <Gold.Goldscore.Fitness>
34.0348

> <Gold.Goldscore.Internal.Vdw>
-0.4228

> <Gold.Goldscore.Internal.Torsion>
-0.4653

> <Gold.Goldscore.External.Vdw>
23.4180

> <Gold.Goldscore.Internal.HBond>
0.0000

> <Gold.Goldscore.External.HBond>
1.9582

> <Gold.Goldscore.Internal.Correction>
-0.7650

> <Gold.Goldscore.Hbonds>
donor molecule, donor type, donor heavy atom, donor atom, acceptor molecule, acceptor atom, score
      L1  H     8    22       P1  2601  0.98

> <Gold.Goldscore.Internal.Vdw.Weighted>
-0.4228

> <Gold.Goldscore.Internal.Torsion.Weighted>
-0.4653

> <Gold.Goldscore.External.Vdw.Weighted>
32.1998

> <Gold.Goldscore.Internal.HBond.Weighted>
0.0000

> <Gold.Goldscore.External.HBond.Weighted>
1.9582

> <Gold.Goldscore.Internal.Correction.Weighted>
-0.7650

> <Gold.Rescore>
     Score     S(PLP)   S(hbond)     S(cho)   S(metal)  DE(clash)   DE(tors)     intcor
     19.95     -20.06       0.00       0.00       0.00       0.00       0.06       ----

> <Gold.PLP.Fitness>
19.9511

> <Gold.PLP.PLP>
-20.0615

> <Gold.PLP.part.hbond>
-0.3454

> <Gold.PLP.part.metal>
0.0000

> <Gold.PLP.part.buried>
9.6120

> <Gold.PLP.part.nonpolar>
-30.6863

> <Gold.PLP.part.repulsive>
0.8418

> <Gold.PLP.ligand.clash>
0.0000

> <Gold.PLP.ligand.torsion>
0.0552

> <Gold.PLP.Chemscore.Hbond>
0.0000

> <Gold.PLP.Chemscore.CHOScore>
0.0000

> <Gold.PLP.Chemscore.Metal>
0.0000

> <Gold.Chemscore.Hbonds>
donor molecule, donor type, donor heavy atom, donor atom, acceptor molecule, acceptor atom, score
      L1  H     8    22       P1  2601  0.78

> <Gold.PLP.Chemscore.Internal.Correction>
   9.000000E+99

#       Name:                CT1002167954
#       Creating user name   hitesit
#       Creation time:       Sun Apr 16 22:50:46 2023


#       File generated by GOLD software.
#

@<TRIPOS>MOLECULE
CT1002167954|ligand_prepared|mol2|1|dock9
    29    30     1
SMALL
NO_CHARGES


@<TRIPOS>ATOM
      1 C1          30.2638  23.6822  59.7700 C.3            1 RES1               0.0000
      2 C2          30.1376  22.1792  60.0925 C.ar           1 RES1               0.0000
      3 C3          29.3833  23.9339  58.5495 C.2            1 RES1               0.0000
      4 C4          29.8171  24.4264  61.0235 C.2            1 RES1               0.0000
      5 C5          31.7057  24.1307  59.4364 C.3            1 RES1               0.0000
      6 C6          31.1078  21.2785  59.6634 C.ar           1 RES1               0.0000
      7 C7          29.0600  21.6798  60.8192 C.ar           1 RES1               0.0000
      8 N8          28.2038  24.5898  58.7457 N.am           1 RES1               0.0000
      9 O9          29.7005  23.5281  57.4382 O.2            1 RES1               0.0000
     10 N10         28.6760  25.1816  60.9495 N.am           1 RES1               0.0000
     11 O11         30.4338  24.3524  62.0792 O.2            1 RES1               0.0000
     12 C12         31.9196  25.6327  59.5385 C.3            1 RES1               0.0000
     13 C13         31.0061  19.9279  59.9528 C.ar           1 RES1               0.0000
     14 C14         28.9601  20.3287  61.1072 C.ar           1 RES1               0.0000
     15 C15         27.8323  25.2724  59.8761 C.2            1 RES1               0.0000
     16 C16         29.9326  19.4521  60.6751 C.ar           1 RES1               0.0000
     17 O17         26.7955  25.9291  59.9040 O.2            1 RES1               0.0000
     18 H18         32.3993  23.6279  60.1215 H              1 RES1               0.0000
     19 H19         31.9488  23.8080  58.4165 H              1 RES1               0.0000
     20 H20         31.9585  21.6341  59.0917 H              1 RES1               0.0000
     21 H21         28.2825  22.3508  61.1684 H              1 RES1               0.0000
     22 H22         27.5363  24.5710  57.9813 H              1 RES1               0.0000
     23 H23         28.4331  25.7266  61.7706 H              1 RES1               0.0000
     24 H24         32.9474  25.8934  59.2944 H              1 RES1               0.0000
     25 H25         31.2633  26.1634  58.8519 H              1 RES1               0.0000
     26 H26         31.7111  25.9844  60.5468 H              1 RES1               0.0000
     27 H27         31.7734  19.2420  59.6092 H              1 RES1               0.0000
     28 H28         28.1132  19.9586  61.6755 H              1 RES1               0.0000
     29 H29         29.8533  18.3941  60.9020 H              1 RES1               0.0000
@<TRIPOS>BOND
    1    1    2 1     
    2    1    3 1     
    3    1    4 1     
    4    1    5 1     
    5    2    6 ar    
    6    2    7 ar    
    7    3    8 1     
    8    3    9 2     
    9    4   10 1     
   10    4   11 2     
   11    5   12 1     
   12    5   18 1     
   13    5   19 1     
   14    6   13 ar    
   15    6   20 1     
   16    7   14 ar    
   17    7   21 1     
   18    8   15 1     
   19    8   22 1     
   20   10   15 1     
   21   10   23 1     
   22   12   24 1     
   23   12   25 1     
   24   12   26 1     
   25   13   16 ar    
   26   13   27 1     
   27   14   16 ar    
   28   14   28 1     
   29   15   17 2     
   30   16   29 1     
@<TRIPOS>SUBSTRUCTURE
      1 RES1           1
@<TRIPOS>SET
DONOR_HYDROGENS      STATIC     ATOMS    <user>   **** ""
2 22 23
ATOM$RED        STATIC     ATOMS    COLORGROUP SYSTEM
2 22 23
@<TRIPOS>COMMENT
> <Gold.Version>
2022.3.0

> <Gold.Id.Protein>
unknown|3l9n_clean|pdb

> <Gold.Protein.RotatedTorsions>
[ 3656 3649 3648 3646 ] final  100.05 input   60.01 | X-H torsion
[ 3578 3569 3568 3566 ] final   65.77 input   59.99 | X-H torsion
[ 3854 3846 3845 3843 ] final  169.28 input   60.02 | X-H torsion
[ 2581 2570 2569 2568 ] final -174.98 input   60.01 | X-H torsion
[ 3119 3112 3110 3107 ] final -155.70 input   60.01 | X-H torsion
[ 5145 5136 5135 5133 ] final  116.46 input   59.99 | X-H torsion
[ 1922 1917 1916 1913 ] final   35.16 input   59.98 | X-H torsion
[ 3169 3160 3159 3157 ] final  -40.75 input   59.99 | X-H torsion
[  630  627  626  623 ] final  176.49 input   60.00 | X-H torsion

> <Gold.Protein.ActiveResidues>
 LEU49   GLY50   THR51   GLY52   SER53   PHE54   GLY55   LEU82   LYS83   GLN84  
 HIS87   GLY126  GLU127  PHE129  SER130  HIS131  LEU132  ARG133  ARG134  GLY136 
 ARG137  ARG165  ASP166  LEU167  LYS168  PRO169  GLU170  ASN171  MET173  ASP184 
 PHE187  TPO197  LEU198  CYS199  GLY200  THR201  PRO202  GLU203  TYR204  LEU205 
 ILE209  ILE210  VAL226  LEU227  TYR229  GLU230  ALA233  GLY234  TYR235  PRO236 
 PRO237  PHE238  PHE239  ALA240  ASP241  GLN242  PRO243  ILE244  GLN245  ILE246 
 TYR247  LYS249  ARG256  PHE257  PRO258  SER259  ASN326  PHE327  ASP328  ASP329 
 TYR330 

> <Gold.Protein.RotatedAtoms>
   27.6316   26.7173   67.2389 H   0  0  0  0  0  0  0  0  0  0  0  0  # atno 630  bound_to 627 
   42.0070   21.0389   52.4843 H   0  0  0  0  0  0  0  0  0  0  0  0  # atno 1922 bound_to 1917
   29.2578   26.4354   57.9549 H   0  0  0  0  0  0  0  0  0  0  0  0  # atno 2581 bound_to 2570
   30.5587   27.2988   57.3975 H   0  0  0  0  0  0  0  0  0  0  0  0  # atno 2582 bound_to 2570
   29.0194   27.8531   57.1285 H   0  0  0  0  0  0  0  0  0  0  0  0  # atno 2583 bound_to 2570
   28.7172   28.5451   56.1608 H   0  0  0  0  0  0  0  0  0  0  0  0  # atno 3119 bound_to 3112
   33.0752   30.5542   48.8125 H   0  0  0  0  0  0  0  0  0  0  0  0  # atno 3169 bound_to 3160
   36.8413   38.5314   42.8563 H   0  0  0  0  0  0  0  0  0  0  0  0  # atno 3578 bound_to 3569
   40.6633   39.6384   43.7890 H   0  0  0  0  0  0  0  0  0  0  0  0  # atno 3656 bound_to 3649
   24.9000   37.3199   59.4459 H   0  0  0  0  0  0  0  0  0  0  0  0  # atno 3854 bound_to 3846
   38.8657   21.8693   61.5092 H   0  0  0  0  0  0  0  0  0  0  0  0  # atno 5145 bound_to 5136
   39.2637   39.1246   43.1373 LP  0  0  0  0  0  0  0  0  0  0  0  0  # atno 5461 bound_to 3649
   40.6463   38.2995   42.8644 LP  0  0  0  0  0  0  0  0  0  0  0  0  # atno 5462 bound_to 3649
   35.8150   38.9981   44.0298 LP  0  0  0  0  0  0  0  0  0  0  0  0  # atno 5463 bound_to 3569
   35.4721   39.3194   42.4658 LP  0  0  0  0  0  0  0  0  0  0  0  0  # atno 5464 bound_to 3569
   25.9064   36.6618   58.3490 LP  0  0  0  0  0  0  0  0  0  0  0  0  # atno 5513 bound_to 3846
   24.3027   36.3638   58.2720 LP  0  0  0  0  0  0  0  0  0  0  0  0  # atno 5514 bound_to 3846
   27.2133   28.4525   55.5469 LP  0  0  0  0  0  0  0  0  0  0  0  0  # atno 5515 bound_to 3112
   27.4509   29.0550   57.0460 LP  0  0  0  0  0  0  0  0  0  0  0  0  # atno 5516 bound_to 3112
   39.9760   20.9631   60.7388 LP  0  0  0  0  0  0  0  0  0  0  0  0  # atno 5523 bound_to 5136
   40.3939   22.4102   61.3697 LP  0  0  0  0  0  0  0  0  0  0  0  0  # atno 5524 bound_to 5136
   40.9908   20.8489   53.7410 LP  0  0  0  0  0  0  0  0  0  0  0  0  # atno 5533 bound_to 1917
   42.5289   20.3097   53.8423 LP  0  0  0  0  0  0  0  0  0  0  0  0  # atno 5534 bound_to 1917
   32.3391   29.6028   47.7169 LP  0  0  0  0  0  0  0  0  0  0  0  0  # atno 5563 bound_to 3160
   32.8832   28.9679   49.1196 LP  0  0  0  0  0  0  0  0  0  0  0  0  # atno 5564 bound_to 3160
   27.8818   25.6282   68.4221 LP  0  0  0  0  0  0  0  0  0  0  0  0  # atno 5571 bound_to 627 
   27.6116   25.1275   66.8915 LP  0  0  0  0  0  0  0  0  0  0  0  0  # atno 5572 bound_to 627 

> <Gold.Score>
     Fitness  S(hb_ext) S(vdw_ext)  S(hb_int)    S(int)      intcor
     33.26       5.65      20.89       0.00      -1.10      -0.76

> <Gold.Goldscore.Fitness>
33.2642

> <Gold.Goldscore.Internal.Vdw>
-1.0289

> <Gold.Goldscore.Internal.Torsion>
-0.8342

> <Gold.Goldscore.External.Vdw>
20.8882

> <Gold.Goldscore.Internal.HBond>
0.0000

> <Gold.Goldscore.External.HBond>
5.6475

> <Gold.Goldscore.Internal.Correction>
-0.7585

> <Gold.Goldscore.Hbonds>
donor molecule, donor type, donor heavy atom, donor atom, acceptor molecule, acceptor atom, score
      L1  H     8    22       P1  2538  0.94

> <Gold.Goldscore.Internal.Vdw.Weighted>
-1.0289

> <Gold.Goldscore.Internal.Torsion.Weighted>
-0.8342

> <Gold.Goldscore.External.Vdw.Weighted>
28.7213

> <Gold.Goldscore.Internal.HBond.Weighted>
0.0000

> <Gold.Goldscore.External.HBond.Weighted>
5.6475

> <Gold.Goldscore.Internal.Correction.Weighted>
-0.7585

> <Gold.Rescore>
     Score     S(PLP)   S(hbond)     S(cho)   S(metal)  DE(clash)   DE(tors)     intcor
     12.30     -10.35       0.86       0.00       0.00       0.00       0.32       ----

> <Gold.PLP.Fitness>
12.3005

> <Gold.PLP.PLP>
-10.3493

> <Gold.PLP.part.hbond>
-3.5424

> <Gold.PLP.part.metal>
0.0000

> <Gold.PLP.part.buried>
11.8401

> <Gold.PLP.part.nonpolar>
-26.2509

> <Gold.PLP.part.repulsive>
6.8609

> <Gold.PLP.ligand.clash>
0.0000

> <Gold.PLP.ligand.torsion>
0.3163

> <Gold.PLP.Chemscore.Hbond>
0.8613

> <Gold.PLP.Chemscore.CHOScore>
0.0000

> <Gold.PLP.Chemscore.Metal>
0.0000

> <Gold.Chemscore.Hbonds>
donor molecule, donor type, donor heavy atom, donor atom, acceptor molecule, acceptor atom, score
      L1  H     8    22       P1  2538  1.00

> <Gold.PLP.Chemscore.Internal.Correction>
   9.000000E+99

#       Name:                CT1002167954
#       Creating user name   hitesit
#       Creation time:       Sun Apr 16 22:50:41 2023


#       File generated by GOLD software.
#

@<TRIPOS>MOLECULE
CT1002167954|ligand_prepared|mol2|1|dock5
    29    30     1
SMALL
NO_CHARGES


@<TRIPOS>ATOM
      1 C1          33.3853  19.7259  59.4300 C.3            1 RES1               0.0000
      2 C2          31.8956  19.6126  59.8132 C.ar           1 RES1               0.0000
      3 C3          33.5910  21.1518  58.9273 C.2            1 RES1               0.0000
      4 C4          34.1765  19.3899  60.6892 C.2            1 RES1               0.0000
      5 C5          33.8203  18.7449  58.3164 C.3            1 RES1               0.0000
      6 C6          31.2547  20.6518  60.4809 C.ar           1 RES1               0.0000
      7 C7          31.1499  18.4781  59.5041 C.ar           1 RES1               0.0000
      8 N8          34.2544  22.0199  59.7435 N.am           1 RES1               0.0000
      9 O9          33.1435  21.5197  57.8481 O.2            1 RES1               0.0000
     10 N10         34.9288  20.3835  61.2590 N.am           1 RES1               0.0000
     11 O11         34.1422  18.2783  61.2025 O.2            1 RES1               0.0000
     12 C12         35.2348  18.9801  57.8104 C.3            1 RES1               0.0000
     13 C13         29.9159  20.5616  60.8244 C.ar           1 RES1               0.0000
     14 C14         29.8113  18.3899  59.8488 C.ar           1 RES1               0.0000
     15 C15         34.9793  21.6915  60.8608 C.2            1 RES1               0.0000
     16 C16         29.1933  19.4310  60.5083 C.ar           1 RES1               0.0000
     17 O17         35.6371  22.5392  61.4574 O.2            1 RES1               0.0000
     18 H18         33.7487  17.7200  58.7009 H              1 RES1               0.0000
     19 H19         33.1241  18.8363  57.4736 H              1 RES1               0.0000
     20 H20         31.8078  21.5484  60.7402 H              1 RES1               0.0000
     21 H21         31.6155  17.6463  58.9865 H              1 RES1               0.0000
     22 H22         34.2070  23.0044  59.5007 H              1 RES1               0.0000
     23 H23         35.5045  20.1238  62.0537 H              1 RES1               0.0000
     24 H24         35.4893  18.2653  57.0307 H              1 RES1               0.0000
     25 H25         35.3353  19.9818  57.3977 H              1 RES1               0.0000
     26 H26         35.9562  18.8722  58.6177 H              1 RES1               0.0000
     27 H27         29.4346  21.3832  61.3446 H              1 RES1               0.0000
     28 H28         29.2466  17.4979  59.5985 H              1 RES1               0.0000
     29 H29         28.1445  19.3607  60.7772 H              1 RES1               0.0000
@<TRIPOS>BOND
    1    1    2 1     
    2    1    3 1     
    3    1    4 1     
    4    1    5 1     
    5    2    6 ar    
    6    2    7 ar    
    7    3    8 1     
    8    3    9 2     
    9    4   10 1     
   10    4   11 2     
   11    5   12 1     
   12    5   18 1     
   13    5   19 1     
   14    6   13 ar    
   15    6   20 1     
   16    7   14 ar    
   17    7   21 1     
   18    8   15 1     
   19    8   22 1     
   20   10   15 1     
   21   10   23 1     
   22   12   24 1     
   23   12   25 1     
   24   12   26 1     
   25   13   16 ar    
   26   13   27 1     
   27   14   16 ar    
   28   14   28 1     
   29   15   17 2     
   30   16   29 1     
@<TRIPOS>SUBSTRUCTURE
      1 RES1           1
@<TRIPOS>SET
DONOR_HYDROGENS      STATIC     ATOMS    <user>   **** ""
2 22 23
ATOM$RED        STATIC     ATOMS    COLORGROUP SYSTEM
2 22 23
@<TRIPOS>COMMENT
> <Gold.Version>
2022.3.0

> <Gold.Id.Protein>
unknown|3l9n_clean|pdb

> <Gold.Protein.RotatedTorsions>
[ 3656 3649 3648 3646 ] final  -50.79 input   60.01 | X-H torsion
[ 3578 3569 3568 3566 ] final  -65.06 input   59.99 | X-H torsion
[ 3854 3846 3845 3843 ] final  -93.64 input   60.02 | X-H torsion
[ 2581 2570 2569 2568 ] final  179.33 input   60.01 | X-H torsion
[ 3119 3112 3110 3107 ] final   52.60 input   60.01 | X-H torsion
[ 5145 5136 5135 5133 ] final   72.83 input   59.99 | X-H torsion
[ 1922 1917 1916 1913 ] final  -35.05 input   59.98 | X-H torsion
[ 3169 3160 3159 3157 ] final -143.43 input   59.99 | X-H torsion
[  630  627  626  623 ] final -155.01 input   60.00 | X-H torsion

> <Gold.Protein.ActiveResidues>
 LEU49   GLY50   THR51   GLY52   SER53   PHE54   GLY55   LEU82   LYS83   GLN84  
 HIS87   GLY126  GLU127  PHE129  SER130  HIS131  LEU132  ARG133  ARG134  GLY136 
 ARG137  ARG165  ASP166  LEU167  LYS168  PRO169  GLU170  ASN171  MET173  ASP184 
 PHE187  TPO197  LEU198  CYS199  GLY200  THR201  PRO202  GLU203  TYR204  LEU205 
 ILE209  ILE210  VAL226  LEU227  TYR229  GLU230  ALA233  GLY234  TYR235  PRO236 
 PRO237  PHE238  PHE239  ALA240  ASP241  GLN242  PRO243  ILE244  GLN245  ILE246 
 TYR247  LYS249  ARG256  PHE257  PRO258  SER259  ASN326  PHE327  ASP328  ASP329 
 TYR330 

> <Gold.Protein.RotatedAtoms>
   27.5671   26.4723   66.8538 H   0  0  0  0  0  0  0  0  0  0  0  0  # atno 630  bound_to 627 
   41.0688   21.1282   53.0050 H   0  0  0  0  0  0  0  0  0  0  0  0  # atno 1922 bound_to 1917
   29.1713   26.4708   57.9372 H   0  0  0  0  0  0  0  0  0  0  0  0  # atno 2581 bound_to 2570
   30.5677   27.2171   57.4453 H   0  0  0  0  0  0  0  0  0  0  0  0  # atno 2582 bound_to 2570
   29.0968   27.8993   57.0984 H   0  0  0  0  0  0  0  0  0  0  0  0  # atno 2583 bound_to 2570
   26.9208   28.6444   55.9223 H   0  0  0  0  0  0  0  0  0  0  0  0  # atno 3119 bound_to 3112
   32.3930   29.8804   47.7092 H   0  0  0  0  0  0  0  0  0  0  0  0  # atno 3169 bound_to 3160
   35.6712   39.0798   43.9651 H   0  0  0  0  0  0  0  0  0  0  0  0  # atno 3578 bound_to 3569
   39.3944   38.7134   42.8854 H   0  0  0  0  0  0  0  0  0  0  0  0  # atno 3656 bound_to 3649
   24.1398   36.5486   58.5527 H   0  0  0  0  0  0  0  0  0  0  0  0  # atno 3854 bound_to 3846
   38.9428   21.2631   61.1765 H   0  0  0  0  0  0  0  0  0  0  0  0  # atno 5145 bound_to 5136
   40.9975   38.5556   43.1145 LP  0  0  0  0  0  0  0  0  0  0  0  0  # atno 5461 bound_to 3649
   40.1908   39.8003   43.7974 LP  0  0  0  0  0  0  0  0  0  0  0  0  # atno 5462 bound_to 3649
   35.5944   39.2621   42.3499 LP  0  0  0  0  0  0  0  0  0  0  0  0  # atno 5463 bound_to 3569
   36.8710   38.5033   43.0291 LP  0  0  0  0  0  0  0  0  0  0  0  0  # atno 5464 bound_to 3569
   25.2708   37.3460   59.4095 LP  0  0  0  0  0  0  0  0  0  0  0  0  # atno 5513 bound_to 3846
   25.7034   36.4559   58.1105 LP  0  0  0  0  0  0  0  0  0  0  0  0  # atno 5514 bound_to 3846
   27.9609   29.0268   57.1137 LP  0  0  0  0  0  0  0  0  0  0  0  0  # atno 5515 bound_to 3112
   28.5135   28.3807   55.7195 LP  0  0  0  0  0  0  0  0  0  0  0  0  # atno 5516 bound_to 3112
   40.5232   21.3945   60.8123 LP  0  0  0  0  0  0  0  0  0  0  0  0  # atno 5523 bound_to 5136
   39.7689   22.5892   61.6311 LP  0  0  0  0  0  0  0  0  0  0  0  0  # atno 5524 bound_to 5136
   41.8374   20.3755   54.2261 LP  0  0  0  0  0  0  0  0  0  0  0  0  # atno 5533 bound_to 1917
   42.6274   20.6931   52.8327 LP  0  0  0  0  0  0  0  0  0  0  0  0  # atno 5534 bound_to 1917
   32.7508   28.8371   48.9054 LP  0  0  0  0  0  0  0  0  0  0  0  0  # atno 5563 bound_to 3160
   33.1587   30.4124   49.0426 LP  0  0  0  0  0  0  0  0  0  0  0  0  # atno 5564 bound_to 3160
   27.8655   26.0918   68.4078 LP  0  0  0  0  0  0  0  0  0  0  0  0  # atno 5571 bound_to 627 
   27.6929   24.9105   67.2936 LP  0  0  0  0  0  0  0  0  0  0  0  0  # atno 5572 bound_to 627 

> <Gold.Score>
     Fitness  S(hb_ext) S(vdw_ext)  S(hb_int)    S(int)      intcor
     32.07       0.00      23.49       0.00      -0.23      -0.76

> <Gold.Goldscore.Fitness>
32.0704

> <Gold.Goldscore.Internal.Vdw>
-0.5364

> <Gold.Goldscore.Internal.Torsion>
-0.4631

> <Gold.Goldscore.External.Vdw>
23.4945

> <Gold.Goldscore.Internal.HBond>
0.0000

> <Gold.Goldscore.External.HBond>
0.0000

> <Gold.Goldscore.Internal.Correction>
-0.7650

> <Gold.Goldscore.Internal.Vdw.Weighted>
-0.5364

> <Gold.Goldscore.Internal.Torsion.Weighted>
-0.4631

> <Gold.Goldscore.External.Vdw.Weighted>
32.3050

> <Gold.Goldscore.Internal.HBond.Weighted>
0.0000

> <Gold.Goldscore.External.HBond.Weighted>
0.0000

> <Gold.Goldscore.Internal.Correction.Weighted>
-0.7650

> <Gold.Rescore>
     Score     S(PLP)   S(hbond)     S(cho)   S(metal)  DE(clash)   DE(tors)     intcor
     27.46     -28.81       0.00       0.00       0.00       0.00       0.67       ----

> <Gold.PLP.Fitness>
27.4627

> <Gold.PLP.PLP>
-28.8097

> <Gold.PLP.part.hbond>
0.0000

> <Gold.PLP.part.metal>
0.0000

> <Gold.PLP.part.buried>
-1.4666

> <Gold.PLP.part.nonpolar>
-32.8340

> <Gold.PLP.part.repulsive>
4.6038

> <Gold.PLP.ligand.clash>
0.0000

> <Gold.PLP.ligand.torsion>
0.6735

> <Gold.PLP.Chemscore.Hbond>
0.0000

> <Gold.PLP.Chemscore.CHOScore>
0.0000

> <Gold.PLP.Chemscore.Metal>
0.0000

> <Gold.PLP.Chemscore.Internal.Correction>
   9.000000E+99

#       Name:                CT1002167954
#       Creating user name   hitesit
#       Creation time:       Sun Apr 16 22:50:39 2023


#       File generated by GOLD software.
#

@<TRIPOS>MOLECULE
CT1002167954|ligand_prepared|mol2|1|dock3
    29    30     1
SMALL
NO_CHARGES


@<TRIPOS>ATOM
      1 C1          33.1980  20.1308  58.9709 C.3            1 RES1               0.0000
      2 C2          31.8419  19.9306  59.6777 C.ar           1 RES1               0.0000
      3 C3          34.2603  19.5817  59.9186 C.2            1 RES1               0.0000
      4 C4          33.1020  19.3850  57.6445 C.2            1 RES1               0.0000
      5 C5          33.5304  21.6097  58.6644 C.3            1 RES1               0.0000
      6 C6          30.9095  20.9625  59.7274 C.ar           1 RES1               0.0000
      7 C7          31.5085  18.7209  60.2812 C.ar           1 RES1               0.0000
      8 N8          34.8390  18.3895  59.5963 N.am           1 RES1               0.0000
      9 O9          34.5574  20.1662  60.9531 O.2            1 RES1               0.0000
     10 N10         33.9145  18.2972  57.4594 N.am           1 RES1               0.0000
     11 O11         32.3183  19.7195  56.7647 O.2            1 RES1               0.0000
     12 C12         34.9488  21.8279  58.1617 C.3            1 RES1               0.0000
     13 C13         29.6868  20.7905  60.3551 C.ar           1 RES1               0.0000
     14 C14         30.2854  18.5511  60.9086 C.ar           1 RES1               0.0000
     15 C15         34.7567  17.7472  58.3870 C.2            1 RES1               0.0000
     16 C16         29.3738  19.5847  60.9456 C.ar           1 RES1               0.0000
     17 O17         35.4149  16.7351  58.1644 O.2            1 RES1               0.0000
     18 H18         32.8270  21.9804  57.9086 H              1 RES1               0.0000
     19 H19         33.3844  22.2009  59.5769 H              1 RES1               0.0000
     20 H20         31.1391  21.9192  59.2704 H              1 RES1               0.0000
     21 H21         32.2106  17.8942  60.2653 H              1 RES1               0.0000
     22 H22         35.3833  17.9334  60.3216 H              1 RES1               0.0000
     23 H23         33.8893  17.8566  56.5453 H              1 RES1               0.0000
     24 H24         35.1294  22.8820  57.9621 H              1 RES1               0.0000
     25 H25         35.6752  21.4934  58.8994 H              1 RES1               0.0000
     26 H26         35.1211  21.2742  57.2410 H              1 RES1               0.0000
     27 H27         28.9735  21.6075  60.3827 H              1 RES1               0.0000
     28 H28         30.0435  17.6006  61.3726 H              1 RES1               0.0000
     29 H29         28.4158  19.4501  61.4369 H              1 RES1               0.0000
@<TRIPOS>BOND
    1    1    2 1     
    2    1    3 1     
    3    1    4 1     
    4    1    5 1     
    5    2    6 ar    
    6    2    7 ar    
    7    3    8 1     
    8    3    9 2     
    9    4   10 1     
   10    4   11 2     
   11    5   12 1     
   12    5   18 1     
   13    5   19 1     
   14    6   13 ar    
   15    6   20 1     
   16    7   14 ar    
   17    7   21 1     
   18    8   15 1     
   19    8   22 1     
   20   10   15 1     
   21   10   23 1     
   22   12   24 1     
   23   12   25 1     
   24   12   26 1     
   25   13   16 ar    
   26   13   27 1     
   27   14   16 ar    
   28   14   28 1     
   29   15   17 2     
   30   16   29 1     
@<TRIPOS>SUBSTRUCTURE
      1 RES1           1
@<TRIPOS>SET
DONOR_HYDROGENS      STATIC     ATOMS    <user>   **** ""
2 22 23
ATOM$RED        STATIC     ATOMS    COLORGROUP SYSTEM
2 22 23
@<TRIPOS>COMMENT
> <Gold.Version>
2022.3.0

> <Gold.Id.Protein>
unknown|3l9n_clean|pdb

> <Gold.Protein.RotatedTorsions>
[ 3656 3649 3648 3646 ] final   67.45 input   60.01 | X-H torsion
[ 3578 3569 3568 3566 ] final  132.06 input   59.99 | X-H torsion
[ 3854 3846 3845 3843 ] final  -28.51 input   60.02 | X-H torsion
[ 2581 2570 2569 2568 ] final   42.52 input   60.01 | X-H torsion
[ 3119 3112 3110 3107 ] final  125.24 input   60.01 | X-H torsion
[ 5145 5136 5135 5133 ] final   46.42 input   59.99 | X-H torsion
[ 1922 1917 1916 1913 ] final -139.15 input   59.98 | X-H torsion
[ 3169 3160 3159 3157 ] final -105.47 input   59.99 | X-H torsion
[  630  627  626  623 ] final  144.88 input   60.00 | X-H torsion

> <Gold.Protein.ActiveResidues>
 LEU49   GLY50   THR51   GLY52   SER53   PHE54   GLY55   LEU82   LYS83   GLN84  
 HIS87   GLY126  GLU127  PHE129  SER130  HIS131  LEU132  ARG133  ARG134  GLY136 
 ARG137  ARG165  ASP166  LEU167  LYS168  PRO169  GLU170  ASN171  MET173  ASP184 
 PHE187  TPO197  LEU198  CYS199  GLY200  THR201  PRO202  GLU203  TYR204  LEU205 
 ILE209  ILE210  VAL226  LEU227  TYR229  GLU230  ALA233  GLY234  TYR235  PRO236 
 PRO237  PHE238  PHE239  ALA240  ASP241  GLN242  PRO243  ILE244  GLN245  ILE246 
 TYR247  LYS249  ARG256  PHE257  PRO258  SER259  ASN326  PHE327  ASP328  ASP329 
 TYR330 

> <Gold.Protein.RotatedAtoms>
   27.7244   26.7356   67.7402 H   0  0  0  0  0  0  0  0  0  0  0  0  # atno 630  bound_to 627 
   41.5922   20.4616   54.2139 H   0  0  0  0  0  0  0  0  0  0  0  0  # atno 1922 bound_to 1917
   29.3516   27.9938   57.0334 H   0  0  0  0  0  0  0  0  0  0  0  0  # atno 2581 bound_to 2570
   28.9442   26.6154   57.8597 H   0  0  0  0  0  0  0  0  0  0  0  0  # atno 2582 bound_to 2570
   30.5391   26.9779   57.5878 H   0  0  0  0  0  0  0  0  0  0  0  0  # atno 2583 bound_to 2570
   27.8373   28.3195   55.3900 H   0  0  0  0  0  0  0  0  0  0  0  0  # atno 3119 bound_to 3112
   32.6156   30.3999   47.9357 H   0  0  0  0  0  0  0  0  0  0  0  0  # atno 3169 bound_to 3160
   36.1846   38.9486   42.1910 H   0  0  0  0  0  0  0  0  0  0  0  0  # atno 3578 bound_to 3569
   40.1621   39.7960   43.7909 H   0  0  0  0  0  0  0  0  0  0  0  0  # atno 3656 bound_to 3649
   24.8842   36.2220   57.9562 H   0  0  0  0  0  0  0  0  0  0  0  0  # atno 3854 bound_to 3846
   39.2187   21.0090   60.9711 H   0  0  0  0  0  0  0  0  0  0  0  0  # atno 5145 bound_to 5136
   39.4036   38.6903   42.8690 LP  0  0  0  0  0  0  0  0  0  0  0  0  # atno 5461 bound_to 3649
   41.0113   38.5750   43.1307 LP  0  0  0  0  0  0  0  0  0  0  0  0  # atno 5462 bound_to 3649
   36.6798   38.5521   43.6895 LP  0  0  0  0  0  0  0  0  0  0  0  0  # atno 5463 bound_to 3569
   35.2685   39.3453   43.4761 LP  0  0  0  0  0  0  0  0  0  0  0  0  # atno 5464 bound_to 3569
   24.3128   37.0661   59.2250 LP  0  0  0  0  0  0  0  0  0  0  0  0  # atno 5513 bound_to 3846
   25.9122   37.0646   58.8955 LP  0  0  0  0  0  0  0  0  0  0  0  0  # atno 5514 bound_to 3846
   26.9640   28.9301   56.6195 LP  0  0  0  0  0  0  0  0  0  0  0  0  # atno 5515 bound_to 3112
   28.5869   28.8048   56.7501 LP  0  0  0  0  0  0  0  0  0  0  0  0  # atno 5516 bound_to 3112
   40.6556   21.7724   60.9708 LP  0  0  0  0  0  0  0  0  0  0  0  0  # atno 5523 bound_to 5136
   39.3587   22.4671   61.6795 LP  0  0  0  0  0  0  0  0  0  0  0  0  # atno 5524 bound_to 5136
   42.7198   20.5754   53.0461 LP  0  0  0  0  0  0  0  0  0  0  0  0  # atno 5533 bound_to 1917
   41.2177   21.1647   52.7949 LP  0  0  0  0  0  0  0  0  0  0  0  0  # atno 5534 bound_to 1917
   32.4820   28.8332   48.3541 LP  0  0  0  0  0  0  0  0  0  0  0  0  # atno 5563 bound_to 3160
   33.2032   29.8929   49.3657 LP  0  0  0  0  0  0  0  0  0  0  0  0  # atno 5564 bound_to 3160
   27.8507   25.1747   68.1831 LP  0  0  0  0  0  0  0  0  0  0  0  0  # atno 5571 bound_to 627 
   27.5493   25.5625   66.6258 LP  0  0  0  0  0  0  0  0  0  0  0  0  # atno 5572 bound_to 627 

> <Gold.Score>
     Fitness  S(hb_ext) S(vdw_ext)  S(hb_int)    S(int)      intcor
     31.98       0.00      23.75       0.00      -0.67      -0.76

> <Gold.Goldscore.Fitness>
31.9848

> <Gold.Goldscore.Internal.Vdw>
-0.9420

> <Gold.Goldscore.Internal.Torsion>
-0.4925

> <Gold.Goldscore.External.Vdw>
23.7486

> <Gold.Goldscore.Internal.HBond>
0.0000

> <Gold.Goldscore.External.HBond>
0.0000

> <Gold.Goldscore.Internal.Correction>
-0.7650

> <Gold.Goldscore.Internal.Vdw.Weighted>
-0.9420

> <Gold.Goldscore.Internal.Torsion.Weighted>
-0.4925

> <Gold.Goldscore.External.Vdw.Weighted>
32.6544

> <Gold.Goldscore.Internal.HBond.Weighted>
0.0000

> <Gold.Goldscore.External.HBond.Weighted>
0.0000

> <Gold.Goldscore.Internal.Correction.Weighted>
-0.7650

> <Gold.Rescore>
     Score     S(PLP)   S(hbond)     S(cho)   S(metal)  DE(clash)   DE(tors)     intcor
     28.42     -28.57       0.00       0.00       0.00       0.00       0.08       ----

> <Gold.PLP.Fitness>
28.4153

> <Gold.PLP.PLP>
-28.5681

> <Gold.PLP.part.hbond>
-0.4912

> <Gold.PLP.part.metal>
0.0000

> <Gold.PLP.part.buried>
2.7643

> <Gold.PLP.part.nonpolar>
-31.6861

> <Gold.PLP.part.repulsive>
0.2260

> <Gold.PLP.ligand.clash>
0.0000

> <Gold.PLP.ligand.torsion>
0.0764

> <Gold.PLP.Chemscore.Hbond>
0.0000

> <Gold.PLP.Chemscore.CHOScore>
0.0000

> <Gold.PLP.Chemscore.Metal>
0.0000

> <Gold.PLP.Chemscore.Internal.Correction>
   9.000000E+99

#       Name:                CT1002167954
#       Creating user name   hitesit
#       Creation time:       Sun Apr 16 22:50:43 2023


#       File generated by GOLD software.
#

@<TRIPOS>MOLECULE
CT1002167954|ligand_prepared|mol2|1|dock7
    29    30     1
SMALL
NO_CHARGES


@<TRIPOS>ATOM
      1 C1          32.9096  19.3524  58.5589 C.3            1 RES1               0.0000
      2 C2          32.3246  20.7038  59.0174 C.ar           1 RES1               0.0000
      3 C3          34.2188  19.6729  57.8436 C.2            1 RES1               0.0000
      4 C4          33.0790  18.5113  59.8193 C.2            1 RES1               0.0000
      5 C5          31.9952  18.5741  57.5844 C.3            1 RES1               0.0000
      6 C6          31.2225  21.2550  58.3704 C.ar           1 RES1               0.0000
      7 C7          32.8734  21.4086  60.0854 C.ar           1 RES1               0.0000
      8 N8          35.3817  19.3830  58.4943 N.am           1 RES1               0.0000
      9 O9          34.2306  20.2081  56.7419 O.2            1 RES1               0.0000
     10 N10         34.3519  18.1808  60.2043 N.am           1 RES1               0.0000
     11 O11         32.1226  18.1458  60.4916 O.2            1 RES1               0.0000
     12 C12         32.4725  17.1601  57.2929 C.3            1 RES1               0.0000
     13 C13         30.6867  22.4653  58.7783 C.ar           1 RES1               0.0000
     14 C14         32.3361  22.6189  60.4915 C.ar           1 RES1               0.0000
     15 C15         35.5124  18.6043  59.6161 C.2            1 RES1               0.0000
     16 C16         31.2428  23.1478  59.8392 C.ar           1 RES1               0.0000
     17 O17         36.6210  18.3091  60.0531 O.2            1 RES1               0.0000
     18 H18         30.9855  18.5251  58.0106 H              1 RES1               0.0000
     19 H19         31.9337  19.1278  56.6394 H              1 RES1               0.0000
     20 H20         30.7730  20.7335  57.5320 H              1 RES1               0.0000
     21 H21         33.7345  21.0121  60.6127 H              1 RES1               0.0000
     22 H22         36.2329  19.7821  58.1116 H              1 RES1               0.0000
     23 H23         34.4427  17.5615  61.0034 H              1 RES1               0.0000
     24 H24         31.7955  16.6588  56.6044 H              1 RES1               0.0000
     25 H25         33.4638  17.1723  56.8447 H              1 RES1               0.0000
     26 H26         32.5213  16.5732  58.2078 H              1 RES1               0.0000
     27 H27         29.8270  22.8779  58.2607 H              1 RES1               0.0000
     28 H28         32.7774  23.1529  61.3266 H              1 RES1               0.0000
     29 H29         30.8226  24.0957  60.1587 H              1 RES1               0.0000
@<TRIPOS>BOND
    1    1    2 1     
    2    1    3 1     
    3    1    4 1     
    4    1    5 1     
    5    2    6 ar    
    6    2    7 ar    
    7    3    8 1     
    8    3    9 2     
    9    4   10 1     
   10    4   11 2     
   11    5   12 1     
   12    5   18 1     
   13    5   19 1     
   14    6   13 ar    
   15    6   20 1     
   16    7   14 ar    
   17    7   21 1     
   18    8   15 1     
   19    8   22 1     
   20   10   15 1     
   21   10   23 1     
   22   12   24 1     
   23   12   25 1     
   24   12   26 1     
   25   13   16 ar    
   26   13   27 1     
   27   14   16 ar    
   28   14   28 1     
   29   15   17 2     
   30   16   29 1     
@<TRIPOS>SUBSTRUCTURE
      1 RES1           1
@<TRIPOS>SET
DONOR_HYDROGENS      STATIC     ATOMS    <user>   **** ""
2 22 23
ATOM$RED        STATIC     ATOMS    COLORGROUP SYSTEM
2 22 23
@<TRIPOS>COMMENT
> <Gold.Version>
2022.3.0

> <Gold.Id.Protein>
unknown|3l9n_clean|pdb

> <Gold.Protein.RotatedTorsions>
[ 3656 3649 3648 3646 ] final  102.83 input   60.01 | X-H torsion
[ 3578 3569 3568 3566 ] final  134.88 input   59.99 | X-H torsion
[ 3854 3846 3845 3843 ] final -161.36 input   60.02 | X-H torsion
[ 2581 2570 2569 2568 ] final  -84.53 input   60.01 | X-H torsion
[ 3119 3112 3110 3107 ] final -115.27 input   60.01 | X-H torsion
[ 5145 5136 5135 5133 ] final   29.33 input   59.99 | X-H torsion
[ 1922 1917 1916 1913 ] final  139.18 input   59.98 | X-H torsion
[ 3169 3160 3159 3157 ] final   93.44 input   59.99 | X-H torsion
[  630  627  626  623 ] final -167.89 input   60.00 | X-H torsion

> <Gold.Protein.ActiveResidues>
 LEU49   GLY50   THR51   GLY52   SER53   PHE54   GLY55   LEU82   LYS83   GLN84  
 HIS87   GLY126  GLU127  PHE129  SER130  HIS131  LEU132  ARG133  ARG134  GLY136 
 ARG137  ARG165  ASP166  LEU167  LYS168  PRO169  GLU170  ASN171  MET173  ASP184 
 PHE187  TPO197  LEU198  CYS199  GLY200  THR201  PRO202  GLU203  TYR204  LEU205 
 ILE209  ILE210  VAL226  LEU227  TYR229  GLU230  ALA233  GLY234  TYR235  PRO236 
 PRO237  PHE238  PHE239  ALA240  ASP241  GLN242  PRO243  ILE244  GLN245  ILE246 
 TYR247  LYS249  ARG256  PHE257  PRO258  SER259  ASN326  PHE327  ASP328  ASP329 
 TYR330 

> <Gold.Protein.RotatedAtoms>
   27.5927   26.6071   67.0129 H   0  0  0  0  0  0  0  0  0  0  0  0  # atno 630  bound_to 627 
   42.6587   20.3605   53.6211 H   0  0  0  0  0  0  0  0  0  0  0  0  # atno 1922 bound_to 1917
   30.5034   26.8823   57.6455 H   0  0  0  0  0  0  0  0  0  0  0  0  # atno 2581 bound_to 2570
   29.4669   28.0133   57.0170 H   0  0  0  0  0  0  0  0  0  0  0  0  # atno 2582 bound_to 2570
   28.8652   26.6922   57.8180 H   0  0  0  0  0  0  0  0  0  0  0  0  # atno 2583 bound_to 2570
   28.5856   28.8024   56.7393 H   0  0  0  0  0  0  0  0  0  0  0  0  # atno 3119 bound_to 3112
   32.7730   28.8618   48.9451 H   0  0  0  0  0  0  0  0  0  0  0  0  # atno 3169 bound_to 3160
   36.1445   38.9710   42.1861 H   0  0  0  0  0  0  0  0  0  0  0  0  # atno 3578 bound_to 3569
   40.7012   39.6147   43.7808 H   0  0  0  0  0  0  0  0  0  0  0  0  # atno 3656 bound_to 3649
   24.4664   37.1673   59.3271 H   0  0  0  0  0  0  0  0  0  0  0  0  # atno 3854 bound_to 3846
   39.4603   20.9246   60.8622 H   0  0  0  0  0  0  0  0  0  0  0  0  # atno 5145 bound_to 5136
   39.2654   39.1620   43.1634 LP  0  0  0  0  0  0  0  0  0  0  0  0  # atno 5461 bound_to 3649
   40.6065   38.2859   42.8466 LP  0  0  0  0  0  0  0  0  0  0  0  0  # atno 5462 bound_to 3649
   36.7052   38.5414   43.6521 LP  0  0  0  0  0  0  0  0  0  0  0  0  # atno 5463 bound_to 3569
   35.2835   39.3335   43.5185 LP  0  0  0  0  0  0  0  0  0  0  0  0  # atno 5464 bound_to 3569
   25.9635   36.9485   58.7271 LP  0  0  0  0  0  0  0  0  0  0  0  0  # atno 5513 bound_to 3846
   24.6820   36.2308   58.0135 LP  0  0  0  0  0  0  0  0  0  0  0  0  # atno 5514 bound_to 3846
   27.8291   28.3157   55.3836 LP  0  0  0  0  0  0  0  0  0  0  0  0  # atno 5515 bound_to 3112
   26.9677   28.9325   56.6263 LP  0  0  0  0  0  0  0  0  0  0  0  0  # atno 5516 bound_to 3112
   40.6398   22.0194   61.1021 LP  0  0  0  0  0  0  0  0  0  0  0  0  # atno 5523 bound_to 5136
   39.1312   22.3052   61.6579 LP  0  0  0  0  0  0  0  0  0  0  0  0  # atno 5524 bound_to 5136
   41.7567   21.1136   52.4953 LP  0  0  0  0  0  0  0  0  0  0  0  0  # atno 5533 bound_to 1917
   41.1065   20.7284   53.9429 LP  0  0  0  0  0  0  0  0  0  0  0  0  # atno 5534 bound_to 1917
   33.1468   30.4443   49.0039 LP  0  0  0  0  0  0  0  0  0  0  0  0  # atno 5563 bound_to 3160
   32.3799   29.8314   47.6990 LP  0  0  0  0  0  0  0  0  0  0  0  0  # atno 5564 bound_to 3160
   27.8781   25.8835   68.4425 LP  0  0  0  0  0  0  0  0  0  0  0  0  # atno 5571 bound_to 627 
   27.6544   24.9831   67.0987 LP  0  0  0  0  0  0  0  0  0  0  0  0  # atno 5572 bound_to 627 

> <Gold.Score>
     Fitness  S(hb_ext) S(vdw_ext)  S(hb_int)    S(int)      intcor
     30.63       2.98      20.58       0.00      -0.65      -0.76

> <Gold.Goldscore.Fitness>
30.6267

> <Gold.Goldscore.Internal.Vdw>
-0.9333

> <Gold.Goldscore.Internal.Torsion>
-0.4771

> <Gold.Goldscore.External.Vdw>
20.5789

> <Gold.Goldscore.Internal.HBond>
0.0000

> <Gold.Goldscore.External.HBond>
2.9826

> <Gold.Goldscore.Internal.Correction>
-0.7585

> <Gold.Goldscore.Hbonds>
donor molecule, donor type, donor heavy atom, donor atom, acceptor molecule, acceptor atom, score
      L1  H     8    22       P1  1868  0.50

> <Gold.Goldscore.Internal.Vdw.Weighted>
-0.9333

> <Gold.Goldscore.Internal.Torsion.Weighted>
-0.4771

> <Gold.Goldscore.External.Vdw.Weighted>
28.2959

> <Gold.Goldscore.Internal.HBond.Weighted>
0.0000

> <Gold.Goldscore.External.HBond.Weighted>
2.9826

> <Gold.Goldscore.Internal.Correction.Weighted>
-0.7585

> <Gold.Rescore>
     Score     S(PLP)   S(hbond)     S(cho)   S(metal)  DE(clash)   DE(tors)     intcor
     16.69     -16.71       0.00       0.00       0.00       0.00       0.01       ----

> <Gold.PLP.Fitness>
16.6932

> <Gold.PLP.PLP>
-16.7150

> <Gold.PLP.part.hbond>
0.0000

> <Gold.PLP.part.metal>
0.0000

> <Gold.PLP.part.buried>
3.6692

> <Gold.PLP.part.nonpolar>
-25.0228

> <Gold.PLP.part.repulsive>
4.2007

> <Gold.PLP.ligand.clash>
0.0000

> <Gold.PLP.ligand.torsion>
0.0109

> <Gold.PLP.Chemscore.Hbond>
0.0000

> <Gold.PLP.Chemscore.CHOScore>
0.0000

> <Gold.PLP.Chemscore.Metal>
0.0000

> <Gold.Chemscore.Hbonds>
donor molecule, donor type, donor heavy atom, donor atom, acceptor molecule, acceptor atom, score
      L1  H     8    22       P1  1868  1.00

> <Gold.PLP.Chemscore.Internal.Correction>
   9.000000E+99

#       Name:                CT1002167954
#       Creating user name   hitesit
#       Creation time:       Sun Apr 16 22:50:44 2023


#       File generated by GOLD software.
#

@<TRIPOS>MOLECULE
CT1002167954|ligand_prepared|mol2|1|dock8
    29    30     1
SMALL
NO_CHARGES


@<TRIPOS>ATOM
      1 C1          31.8726  19.0861  58.9006 C.3            1 RES1               0.0000
      2 C2          31.2178  20.4031  59.3648 C.ar           1 RES1               0.0000
      3 C3          32.7260  19.4370  57.6853 C.2            1 RES1               0.0000
      4 C4          32.6697  18.5634  60.0906 C.2            1 RES1               0.0000
      5 C5          30.8573  17.9946  58.4892 C.3            1 RES1               0.0000
      6 C6          30.0158  20.3881  60.0661 C.ar           1 RES1               0.0000
      7 C7          31.8040  21.6383  59.1021 C.ar           1 RES1               0.0000
      8 N8          34.0795  19.4643  57.8504 N.am           1 RES1               0.0000
      9 O9          32.2173  19.7241  56.6087 O.2            1 RES1               0.0000
     10 N10         34.0343  18.5116  59.9764 N.am           1 RES1               0.0000
     11 O11         32.1296  18.2116  61.1321 O.2            1 RES1               0.0000
     12 C12         31.4755  16.8447  57.7096 C.3            1 RES1               0.0000
     13 C13         29.4228  21.5651  60.4919 C.ar           1 RES1               0.0000
     14 C14         31.2092  22.8142  59.5286 C.ar           1 RES1               0.0000
     15 C15         34.7773  18.9672  58.9216 C.2            1 RES1               0.0000
     16 C16         30.0192  22.7788  60.2239 C.ar           1 RES1               0.0000
     17 O17         36.0046  18.9363  58.9153 O.2            1 RES1               0.0000
     18 H18         30.3839  17.5936  59.3939 H              1 RES1               0.0000
     19 H19         30.0727  18.4551  57.8762 H              1 RES1               0.0000
     20 H20         29.5304  19.4426  60.2841 H              1 RES1               0.0000
     21 H21         32.7396  21.6904  58.5558 H              1 RES1               0.0000
     22 H22         34.6230  19.8943  57.1087 H              1 RES1               0.0000
     23 H23         34.5434  18.0946  60.7493 H              1 RES1               0.0000
     24 H24         30.7202  16.1074  57.4458 H              1 RES1               0.0000
     25 H25         31.9337  17.2040  56.7905 H              1 RES1               0.0000
     26 H26         32.2431  16.3476  58.2992 H              1 RES1               0.0000
     27 H27         28.4856  21.5319  61.0375 H              1 RES1               0.0000
     28 H28         31.6818  23.7672  59.3149 H              1 RES1               0.0000
     29 H29         29.5547  23.7007  60.5579 H              1 RES1               0.0000
@<TRIPOS>BOND
    1    1    2 1     
    2    1    3 1     
    3    1    4 1     
    4    1    5 1     
    5    2    6 ar    
    6    2    7 ar    
    7    3    8 1     
    8    3    9 2     
    9    4   10 1     
   10    4   11 2     
   11    5   12 1     
   12    5   18 1     
   13    5   19 1     
   14    6   13 ar    
   15    6   20 1     
   16    7   14 ar    
   17    7   21 1     
   18    8   15 1     
   19    8   22 1     
   20   10   15 1     
   21   10   23 1     
   22   12   24 1     
   23   12   25 1     
   24   12   26 1     
   25   13   16 ar    
   26   13   27 1     
   27   14   16 ar    
   28   14   28 1     
   29   15   17 2     
   30   16   29 1     
@<TRIPOS>SUBSTRUCTURE
      1 RES1           1
@<TRIPOS>SET
DONOR_HYDROGENS      STATIC     ATOMS    <user>   **** ""
2 22 23
ATOM$RED        STATIC     ATOMS    COLORGROUP SYSTEM
2 22 23
@<TRIPOS>COMMENT
> <Gold.Version>
2022.3.0

> <Gold.Id.Protein>
unknown|3l9n_clean|pdb

> <Gold.Protein.RotatedTorsions>
[ 3656 3649 3648 3646 ] final   89.64 input   60.01 | X-H torsion
[ 3578 3569 3568 3566 ] final  102.53 input   59.99 | X-H torsion
[ 3854 3846 3845 3843 ] final -138.91 input   60.02 | X-H torsion
[ 2581 2570 2569 2568 ] final  -38.59 input   60.01 | X-H torsion
[ 3119 3112 3110 3107 ] final   75.46 input   60.01 | X-H torsion
[ 5145 5136 5135 5133 ] final   49.68 input   59.99 | X-H torsion
[ 1922 1917 1916 1913 ] final -161.51 input   59.98 | X-H torsion
[ 3169 3160 3159 3157 ] final  -51.10 input   59.99 | X-H torsion
[  630  627  626  623 ] final  -75.42 input   60.00 | X-H torsion

> <Gold.Protein.ActiveResidues>
 LEU49   GLY50   THR51   GLY52   SER53   PHE54   GLY55   LEU82   LYS83   GLN84  
 HIS87   GLY126  GLU127  PHE129  SER130  HIS131  LEU132  ARG133  ARG134  GLY136 
 ARG137  ARG165  ASP166  LEU167  LYS168  PRO169  GLU170  ASN171  MET173  ASP184 
 PHE187  TPO197  LEU198  CYS199  GLY200  THR201  PRO202  GLU203  TYR204  LEU205 
 ILE209  ILE210  VAL226  LEU227  TYR229  GLU230  ALA233  GLY234  TYR235  PRO236 
 PRO237  PHE238  PHE239  ALA240  ASP241  GLN242  PRO243  ILE244  GLN245  ILE246 
 TYR247  LYS249  ARG256  PHE257  PRO258  SER259  ASN326  PHE327  ASP328  ASP329 
 TYR330 

> <Gold.Protein.RotatedAtoms>
   27.5864   25.2769   66.7685 H   0  0  0  0  0  0  0  0  0  0  0  0  # atno 630  bound_to 627 
   41.9387   20.3536   54.2041 H   0  0  0  0  0  0  0  0  0  0  0  0  # atno 1922 bound_to 1917
   30.4812   27.5260   57.2671 H   0  0  0  0  0  0  0  0  0  0  0  0  # atno 2581 bound_to 2570
   28.8314   27.6855   57.2336 H   0  0  0  0  0  0  0  0  0  0  0  0  # atno 2582 bound_to 2570
   29.5225   26.3761   57.9799 H   0  0  0  0  0  0  0  0  0  0  0  0  # atno 2583 bound_to 2570
   27.1127   28.5037   55.6377 H   0  0  0  0  0  0  0  0  0  0  0  0  # atno 3119 bound_to 3112
   33.0141   30.6058   48.6637 H   0  0  0  0  0  0  0  0  0  0  0  0  # atno 3169 bound_to 3160
   36.5651   38.7243   42.3716 H   0  0  0  0  0  0  0  0  0  0  0  0  # atno 3578 bound_to 3569
   40.5124   39.7136   43.8086 H   0  0  0  0  0  0  0  0  0  0  0  0  # atno 3656 bound_to 3649
   24.2289   36.9811   59.1225 H   0  0  0  0  0  0  0  0  0  0  0  0  # atno 3854 bound_to 3846
   39.1773   21.0329   60.9946 H   0  0  0  0  0  0  0  0  0  0  0  0  # atno 5145 bound_to 5136
   39.2768   38.9826   43.0427 LP  0  0  0  0  0  0  0  0  0  0  0  0  # atno 5461 bound_to 3649
   40.7852   38.3656   42.9392 LP  0  0  0  0  0  0  0  0  0  0  0  0  # atno 5462 bound_to 3649
   36.3360   38.7160   43.9826 LP  0  0  0  0  0  0  0  0  0  0  0  0  # atno 5463 bound_to 3569
   35.2291   39.4073   43.0012 LP  0  0  0  0  0  0  0  0  0  0  0  0  # atno 5464 bound_to 3569
   25.8449   37.1425   59.0152 LP  0  0  0  0  0  0  0  0  0  0  0  0  # atno 5513 bound_to 3846
   25.0396   36.2242   57.9313 LP  0  0  0  0  0  0  0  0  0  0  0  0  # atno 5514 bound_to 3846
   27.5891   29.0586   57.0911 LP  0  0  0  0  0  0  0  0  0  0  0  0  # atno 5515 bound_to 3112
   28.6919   28.4907   56.0290 LP  0  0  0  0  0  0  0  0  0  0  0  0  # atno 5516 bound_to 3112
   40.6494   21.7244   60.9478 LP  0  0  0  0  0  0  0  0  0  0  0  0  # atno 5523 bound_to 5136
   39.4067   22.4912   61.6789 LP  0  0  0  0  0  0  0  0  0  0  0  0  # atno 5524 bound_to 5136
   42.5721   20.7424   52.7564 LP  0  0  0  0  0  0  0  0  0  0  0  0  # atno 5533 bound_to 1917
   41.0165   21.1065   53.0946 LP  0  0  0  0  0  0  0  0  0  0  0  0  # atno 5534 bound_to 1917
   32.3257   29.4393   47.7623 LP  0  0  0  0  0  0  0  0  0  0  0  0  # atno 5563 bound_to 3160
   32.9582   29.0793   49.2241 LP  0  0  0  0  0  0  0  0  0  0  0  0  # atno 5564 bound_to 3160
   27.6629   26.7637   67.4259 LP  0  0  0  0  0  0  0  0  0  0  0  0  # atno 5571 bound_to 627 
   27.8760   25.4423   68.3614 LP  0  0  0  0  0  0  0  0  0  0  0  0  # atno 5572 bound_to 627 

> <Gold.Score>
     Fitness  S(hb_ext) S(vdw_ext)  S(hb_int)    S(int)      intcor
     29.10       0.00      21.85       0.00      -0.94      -0.76

> <Gold.Goldscore.Fitness>
29.1000

> <Gold.Goldscore.Internal.Vdw>
-0.9945

> <Gold.Goldscore.Internal.Torsion>
-0.7057

> <Gold.Goldscore.External.Vdw>
21.8485

> <Gold.Goldscore.Internal.HBond>
0.0000

> <Gold.Goldscore.External.HBond>
0.0000

> <Gold.Goldscore.Internal.Correction>
-0.7585

> <Gold.Goldscore.Internal.Vdw.Weighted>
-0.9945

> <Gold.Goldscore.Internal.Torsion.Weighted>
-0.7057

> <Gold.Goldscore.External.Vdw.Weighted>
30.0416

> <Gold.Goldscore.Internal.HBond.Weighted>
0.0000

> <Gold.Goldscore.External.HBond.Weighted>
0.0000

> <Gold.Goldscore.Internal.Correction.Weighted>
-0.7585

> <Gold.Rescore>
     Score     S(PLP)   S(hbond)     S(cho)   S(metal)  DE(clash)   DE(tors)     intcor
     19.13     -21.37       0.00       0.00       0.00       0.00       1.12       ----

> <Gold.PLP.Fitness>
19.1274

> <Gold.PLP.PLP>
-21.3737

> <Gold.PLP.part.hbond>
-0.2288

> <Gold.PLP.part.metal>
0.0000

> <Gold.PLP.part.buried>
5.8765

> <Gold.PLP.part.nonpolar>
-28.3448

> <Gold.PLP.part.repulsive>
0.3574

> <Gold.PLP.ligand.clash>
0.0000

> <Gold.PLP.ligand.torsion>
1.1232

> <Gold.PLP.Chemscore.Hbond>
0.0000

> <Gold.PLP.Chemscore.CHOScore>
0.0000

> <Gold.PLP.Chemscore.Metal>
0.0000

> <Gold.PLP.Chemscore.Internal.Correction>
   9.000000E+99

