#       Name:                GA Fitting Points
#       Creating user name   hitesit
#       Creation time:       Sun Apr 16 22:50:28 2023


#       Fitting Points Used by GA Software.
#

@<TRIPOS>MOLECULE
GA Fitting Points
 13798    0    0
SMALL
NO_CHARGES


@<TRIPOS>ATOM
      1 ****        17.0000  26.0000  59.2500 Du        
      2 ****        17.0000  26.0000  59.5000 Du        
      3 ****        17.2500  26.0000  59.2500 Du        
      4 ****        17.2500  26.0000  59.5000 Du        
      5 ****        17.2500  26.2500  59.2500 Du        
      6 ****        17.2500  26.2500  59.5000 Du        
      7 ****        17.5000  26.0000  59.0000 Du        
      8 ****        17.5000  26.0000  59.2500 Du        
      9 ****        17.5000  26.0000  59.5000 Du        
     10 ****        17.5000  26.2500  59.2500 Du        
     11 ****        17.5000  26.2500  59.5000 Du        
     12 ****        17.5000  26.2500  59.7500 Du        
     13 ****        17.5000  26.5000  59.2500 Du        
     14 ****        17.5000  26.5000  59.5000 Du        
     15 ****        17.5000  26.5000  59.7500 Du        
     16 ****        17.7500  26.2500  59.2500 Du        
     17 ****        17.7500  26.2500  59.5000 Du        
     18 ****        17.7500  26.5000  59.5000 Du        
     19 ****        17.7500  26.5000  59.7500 Du        
     20 ****        18.2500  29.0000  62.2500 Du        
     21 ****        18.5000  29.0000  62.2500 Du        
     22 ****        18.5000  29.2500  62.2500 Du        
     23 ****        18.7500  29.0000  62.0000 Du        
     24 ****        18.7500  29.0000  62.2500 Du        
     25 ****        18.7500  29.2500  62.2500 Du        
     26 ****        18.7500  29.5000  62.2500 Du        
     27 ****        19.0000  28.7500  62.0000 Du        
     28 ****        19.0000  28.7500  62.2500 Du        
     29 ****        19.0000  29.0000  62.0000 Du        
     30 ****        19.0000  29.0000  62.2500 Du        
     31 ****        19.0000  29.2500  62.2500 Du        
     32 ****        19.0000  38.7500  58.0000 Du        
     33 ****        19.0000  39.0000  58.0000 Du        
     34 ****        19.0000  39.0000  58.2500 Du        
     35 ****        19.0000  39.2500  58.0000 Du        
     36 ****        19.0000  39.2500  58.2500 Du        
     37 ****        19.0000  39.5000  58.2500 Du        
     38 ****        19.0000  39.5000  58.5000 Du        
     39 ****        19.0000  39.7500  58.2500 Du        
     40 ****        19.0000  39.7500  58.5000 Du        
     41 ****        19.0000  39.7500  58.7500 Du        
     42 ****        19.0000  40.0000  58.5000 Du        
     43 ****        19.0000  40.0000  58.7500 Du        
     44 ****        19.2500  28.7500  62.0000 Du        
     45 ****        19.2500  28.7500  62.2500 Du        
     46 ****        19.2500  29.0000  62.0000 Du        
     47 ****        19.2500  29.0000  62.2500 Du        
     48 ****        19.2500  29.2500  62.0000 Du        
     49 ****        19.2500  29.2500  62.2500 Du        
     50 ****        19.2500  29.5000  62.2500 Du        
     51 ****        19.2500  38.2500  57.7500 Du        
     52 ****        19.2500  38.2500  58.0000 Du        
     53 ****        19.2500  38.5000  58.0000 Du        
     54 ****        19.2500  38.7500  58.0000 Du        
     55 ****        19.2500  38.7500  58.2500 Du        
     56 ****        19.2500  39.0000  58.0000 Du        
     57 ****        19.2500  39.0000  58.2500 Du        
     58 ****        19.2500  39.2500  58.0000 Du        
     59 ****        19.2500  39.2500  58.2500 Du        
     60 ****        19.2500  39.2500  58.5000 Du        
     61 ****        19.2500  39.5000  58.2500 Du        
     62 ****        19.2500  39.5000  58.5000 Du        
     63 ****        19.2500  39.5000  58.7500 Du        
     64 ****        19.2500  39.7500  58.2500 Du        
     65 ****        19.2500  39.7500  58.5000 Du        
     66 ****        19.2500  39.7500  58.7500 Du        
     67 ****        19.2500  40.0000  58.2500 Du        
     68 ****        19.2500  40.0000  58.5000 Du        
     69 ****        19.2500  40.0000  58.7500 Du        
     70 ****        19.2500  40.2500  58.2500 Du        
     71 ****        19.2500  40.2500  58.5000 Du        
     72 ****        19.5000  29.0000  62.2500 Du        
     73 ****        19.5000  29.2500  62.2500 Du        
     74 ****        19.5000  37.7500  57.7500 Du        
     75 ****        19.5000  38.0000  57.7500 Du        
     76 ****        19.5000  38.0000  58.0000 Du        
     77 ****        19.5000  38.2500  57.7500 Du        
     78 ****        19.5000  38.2500  58.0000 Du        
     79 ****        19.5000  38.2500  58.2500 Du        
     80 ****        19.5000  38.5000  57.7500 Du        
     81 ****        19.5000  38.5000  58.0000 Du        
     82 ****        19.5000  38.5000  58.2500 Du        
     83 ****        19.5000  38.7500  57.7500 Du        
     84 ****        19.5000  38.7500  58.0000 Du        
     85 ****        19.5000  38.7500  58.2500 Du        
     86 ****        19.5000  38.7500  58.5000 Du        
     87 ****        19.5000  39.0000  57.7500 Du        
     88 ****        19.5000  39.0000  58.0000 Du        
     89 ****        19.5000  39.0000  58.2500 Du        
     90 ****        19.5000  39.0000  58.5000 Du        
     91 ****        19.5000  39.2500  58.0000 Du        
     92 ****        19.5000  39.2500  58.2500 Du        
     93 ****        19.5000  39.2500  58.5000 Du        
     94 ****        19.5000  39.2500  58.7500 Du        
     95 ****        19.5000  39.5000  58.0000 Du        
     96 ****        19.5000  39.5000  58.2500 Du        
     97 ****        19.5000  39.7500  58.0000 Du        
     98 ****        19.5000  39.7500  58.2500 Du        
     99 ****        19.5000  40.0000  58.2500 Du        
    100 ****        19.5000  40.2500  58.2500 Du        
    101 ****        19.7500  29.0000  62.2500 Du        
    102 ****        19.7500  29.2500  62.2500 Du        
    103 ****        19.7500  29.5000  62.2500 Du        
    104 ****        19.7500  36.7500  57.5000 Du        
    105 ****        19.7500  37.0000  57.5000 Du        
    106 ****        19.7500  37.0000  57.7500 Du        
    107 ****        19.7500  37.2500  57.5000 Du        
    108 ****        19.7500  37.2500  57.7500 Du        
    109 ****        19.7500  37.2500  58.0000 Du        
    110 ****        19.7500  37.5000  57.5000 Du        
    111 ****        19.7500  37.5000  57.7500 Du        
    112 ****        19.7500  37.5000  58.0000 Du        
    113 ****        19.7500  37.7500  57.7500 Du        
    114 ****        19.7500  37.7500  58.0000 Du        
    115 ****        19.7500  37.7500  58.2500 Du        
    116 ****        19.7500  38.0000  57.7500 Du        
    117 ****        19.7500  38.0000  58.0000 Du        
    118 ****        19.7500  38.0000  58.2500 Du        
    119 ****        19.7500  38.2500  57.7500 Du        
    120 ****        19.7500  38.2500  58.0000 Du        
    121 ****        19.7500  38.2500  58.2500 Du        
    122 ****        19.7500  38.2500  58.5000 Du        
    123 ****        19.7500  38.5000  57.7500 Du        
    124 ****        19.7500  38.5000  58.0000 Du        
    125 ****        19.7500  38.5000  58.2500 Du        
    126 ****        19.7500  38.5000  58.5000 Du        
    127 ****        19.7500  38.7500  57.7500 Du        
    128 ****        19.7500  38.7500  58.0000 Du        
    129 ****        19.7500  38.7500  58.2500 Du        
    130 ****        19.7500  38.7500  58.5000 Du        
    131 ****        19.7500  38.7500  58.7500 Du        
    132 ****        19.7500  39.0000  57.7500 Du        
    133 ****        19.7500  39.0000  58.0000 Du        
    134 ****        19.7500  39.0000  58.2500 Du        
    135 ****        19.7500  39.0000  58.5000 Du        
    136 ****        19.7500  39.0000  58.7500 Du        
    137 ****        19.7500  39.2500  57.7500 Du        
    138 ****        19.7500  39.2500  58.0000 Du        
    139 ****        19.7500  39.2500  58.2500 Du        
    140 ****        19.7500  39.2500  58.5000 Du        
    141 ****        19.7500  39.2500  58.7500 Du        
    142 ****        19.7500  39.2500  59.0000 Du        
    143 ****        19.7500  39.5000  58.0000 Du        
    144 ****        19.7500  39.5000  58.2500 Du        
    145 ****        19.7500  39.5000  58.5000 Du        
    146 ****        19.7500  39.5000  58.7500 Du        
    147 ****        19.7500  39.7500  58.0000 Du        
    148 ****        19.7500  39.7500  58.2500 Du        
    149 ****        19.7500  39.7500  58.5000 Du        
    150 ****        19.7500  39.7500  58.7500 Du        
    151 ****        19.7500  40.0000  58.0000 Du        
    152 ****        19.7500  40.0000  58.2500 Du        
    153 ****        19.7500  40.0000  58.5000 Du        
    154 ****        19.7500  40.0000  58.7500 Du        
    155 ****        19.7500  40.2500  58.0000 Du        
    156 ****        19.7500  40.2500  58.2500 Du        
    157 ****        20.0000  27.2500  65.5000 Du        
    158 ****        20.0000  27.2500  65.7500 Du        
    159 ****        20.0000  27.2500  66.0000 Du        
    160 ****        20.0000  27.5000  66.0000 Du        
    161 ****        20.0000  27.7500  66.0000 Du        
    162 ****        20.0000  29.0000  62.2500 Du        
    163 ****        20.0000  29.2500  62.2500 Du        
    164 ****        20.0000  29.5000  62.2500 Du        
    165 ****        20.0000  36.2500  57.2500 Du        
    166 ****        20.0000  36.5000  57.2500 Du        
    167 ****        20.0000  36.5000  57.5000 Du        
    168 ****        20.0000  36.5000  57.7500 Du        
    169 ****        20.0000  36.7500  57.2500 Du        
    170 ****        20.0000  36.7500  57.5000 Du        
    171 ****        20.0000  36.7500  57.7500 Du        
    172 ****        20.0000  36.7500  58.0000 Du        
    173 ****        20.0000  37.0000  57.2500 Du        
    174 ****        20.0000  37.0000  57.5000 Du        
    175 ****        20.0000  37.0000  57.7500 Du        
    176 ****        20.0000  37.0000  58.0000 Du        
    177 ****        20.0000  37.0000  58.2500 Du        
    178 ****        20.0000  37.2500  57.5000 Du        
    179 ****        20.0000  37.2500  57.7500 Du        
    180 ****        20.0000  37.2500  58.0000 Du        
    181 ****        20.0000  37.2500  58.2500 Du        
    182 ****        20.0000  37.5000  57.5000 Du        
    183 ****        20.0000  37.5000  57.7500 Du        
    184 ****        20.0000  37.5000  58.0000 Du        
    185 ****        20.0000  37.5000  58.2500 Du        
    186 ****        20.0000  37.5000  58.5000 Du        
    187 ****        20.0000  37.7500  57.5000 Du        
    188 ****        20.0000  37.7500  57.7500 Du        
    189 ****        20.0000  37.7500  58.0000 Du        
    190 ****        20.0000  37.7500  58.2500 Du        
    191 ****        20.0000  37.7500  58.5000 Du        
    192 ****        20.0000  38.0000  57.7500 Du        
    193 ****        20.0000  38.0000  58.0000 Du        
    194 ****        20.0000  38.0000  58.2500 Du        
    195 ****        20.0000  38.0000  58.5000 Du        
    196 ****        20.0000  38.0000  58.7500 Du        
    197 ****        20.0000  38.2500  57.7500 Du        
    198 ****        20.0000  38.2500  58.0000 Du        
    199 ****        20.0000  38.2500  58.2500 Du        
    200 ****        20.0000  38.2500  58.5000 Du        
    201 ****        20.0000  38.2500  58.7500 Du        
    202 ****        20.0000  38.5000  57.7500 Du        
    203 ****        20.0000  38.5000  58.0000 Du        
    204 ****        20.0000  38.5000  58.2500 Du        
    205 ****        20.0000  38.5000  58.5000 Du        
    206 ****        20.0000  38.5000  58.7500 Du        
    207 ****        20.0000  38.5000  59.0000 Du        
    208 ****        20.0000  38.7500  57.7500 Du        
    209 ****        20.0000  38.7500  58.0000 Du        
    210 ****        20.0000  38.7500  58.2500 Du        
    211 ****        20.0000  38.7500  58.5000 Du        
    212 ****        20.0000  38.7500  58.7500 Du        
    213 ****        20.0000  38.7500  59.0000 Du        
    214 ****        20.0000  39.0000  57.7500 Du        
    215 ****        20.0000  39.0000  58.0000 Du        
    216 ****        20.0000  39.0000  58.2500 Du        
    217 ****        20.0000  39.0000  58.5000 Du        
    218 ****        20.0000  39.0000  58.7500 Du        
    219 ****        20.0000  39.0000  59.0000 Du        
    220 ****        20.0000  39.2500  57.7500 Du        
    221 ****        20.0000  39.2500  58.0000 Du        
    222 ****        20.0000  39.2500  58.2500 Du        
    223 ****        20.0000  39.2500  58.5000 Du        
    224 ****        20.0000  39.2500  58.7500 Du        
    225 ****        20.0000  39.2500  59.0000 Du        
    226 ****        20.0000  39.5000  57.7500 Du        
    227 ****        20.0000  39.5000  58.0000 Du        
    228 ****        20.0000  39.5000  58.2500 Du        
    229 ****        20.0000  39.5000  58.5000 Du        
    230 ****        20.0000  39.5000  58.7500 Du        
    231 ****        20.0000  39.5000  59.0000 Du        
    232 ****        20.0000  39.7500  57.7500 Du        
    233 ****        20.0000  39.7500  58.0000 Du        
    234 ****        20.0000  39.7500  58.2500 Du        
    235 ****        20.0000  39.7500  58.5000 Du        
    236 ****        20.0000  39.7500  58.7500 Du        
    237 ****        20.0000  39.7500  59.0000 Du        
    238 ****        20.0000  40.0000  58.0000 Du        
    239 ****        20.0000  40.0000  58.2500 Du        
    240 ****        20.0000  40.0000  58.5000 Du        
    241 ****        20.0000  40.0000  58.7500 Du        
    242 ****        20.0000  40.0000  59.0000 Du        
    243 ****        20.0000  40.2500  58.0000 Du        
    244 ****        20.0000  40.2500  58.2500 Du        
    245 ****        20.0000  40.2500  58.5000 Du        
    246 ****        20.0000  40.5000  58.2500 Du        
    247 ****        20.0000  40.7500  58.2500 Du        
    248 ****        20.0000  44.2500  55.0000 Du        
    249 ****        20.0000  44.2500  55.2500 Du        
    250 ****        20.2500  29.2500  62.2500 Du        
    251 ****        20.2500  36.0000  57.2500 Du        
    252 ****        20.2500  36.0000  57.5000 Du        
    253 ****        20.2500  36.2500  57.2500 Du        
    254 ****        20.2500  36.2500  57.5000 Du        
    255 ****        20.2500  36.2500  57.7500 Du        
    256 ****        20.2500  36.5000  57.2500 Du        
    257 ****        20.2500  36.5000  57.5000 Du        
    258 ****        20.2500  36.5000  57.7500 Du        
    259 ****        20.2500  36.5000  58.0000 Du        
    260 ****        20.2500  36.5000  58.2500 Du        
    261 ****        20.2500  36.7500  57.2500 Du        
    262 ****        20.2500  36.7500  57.5000 Du        
    263 ****        20.2500  36.7500  57.7500 Du        
    264 ****        20.2500  36.7500  58.0000 Du        
    265 ****        20.2500  36.7500  58.2500 Du        
    266 ****        20.2500  37.0000  57.2500 Du        
    267 ****        20.2500  37.0000  57.5000 Du        
    268 ****        20.2500  37.0000  57.7500 Du        
    269 ****        20.2500  37.0000  58.0000 Du        
    270 ****        20.2500  37.0000  58.2500 Du        
    271 ****        20.2500  37.0000  58.5000 Du        
    272 ****        20.2500  37.2500  57.2500 Du        
    273 ****        20.2500  37.2500  57.5000 Du        
    274 ****        20.2500  37.2500  57.7500 Du        
    275 ****        20.2500  37.2500  58.0000 Du        
    276 ****        20.2500  37.2500  58.2500 Du        
    277 ****        20.2500  37.2500  58.5000 Du        
    278 ****        20.2500  37.2500  58.7500 Du        
    279 ****        20.2500  37.5000  57.5000 Du        
    280 ****        20.2500  37.5000  57.7500 Du        
    281 ****        20.2500  37.5000  58.0000 Du        
    282 ****        20.2500  37.5000  58.2500 Du        
    283 ****        20.2500  37.5000  58.5000 Du        
    284 ****        20.2500  37.5000  58.7500 Du        
    285 ****        20.2500  37.7500  57.5000 Du        
    286 ****        20.2500  37.7500  57.7500 Du        
    287 ****        20.2500  37.7500  58.0000 Du        
    288 ****        20.2500  37.7500  58.2500 Du        
    289 ****        20.2500  37.7500  58.5000 Du        
    290 ****        20.2500  37.7500  58.7500 Du        
    291 ****        20.2500  37.7500  59.0000 Du        
    292 ****        20.2500  38.0000  57.7500 Du        
    293 ****        20.2500  38.0000  58.0000 Du        
    294 ****        20.2500  38.0000  58.2500 Du        
    295 ****        20.2500  38.0000  58.5000 Du        
    296 ****        20.2500  38.0000  58.7500 Du        
    297 ****        20.2500  38.0000  59.0000 Du        
    298 ****        20.2500  38.2500  57.7500 Du        
    299 ****        20.2500  38.2500  58.0000 Du        
    300 ****        20.2500  38.2500  58.2500 Du        
    301 ****        20.2500  38.2500  58.5000 Du        
    302 ****        20.2500  38.2500  58.7500 Du        
    303 ****        20.2500  38.2500  59.0000 Du        
    304 ****        20.2500  38.2500  59.2500 Du        
    305 ****        20.2500  38.5000  57.7500 Du        
    306 ****        20.2500  38.5000  58.0000 Du        
    307 ****        20.2500  38.5000  58.2500 Du        
    308 ****        20.2500  38.5000  58.5000 Du        
    309 ****        20.2500  38.5000  58.7500 Du        
    310 ****        20.2500  38.5000  59.0000 Du        
    311 ****        20.2500  38.7500  57.7500 Du        
    312 ****        20.2500  38.7500  58.0000 Du        
    313 ****        20.2500  38.7500  58.2500 Du        
    314 ****        20.2500  38.7500  58.5000 Du        
    315 ****        20.2500  38.7500  58.7500 Du        
    316 ****        20.2500  38.7500  59.0000 Du        
    317 ****        20.2500  38.7500  59.2500 Du        
    318 ****        20.2500  39.0000  57.7500 Du        
    319 ****        20.2500  39.0000  58.0000 Du        
    320 ****        20.2500  39.0000  58.2500 Du        
    321 ****        20.2500  39.0000  58.5000 Du        
    322 ****        20.2500  39.0000  58.7500 Du        
    323 ****        20.2500  39.0000  59.0000 Du        
    324 ****        20.2500  39.0000  59.2500 Du        
    325 ****        20.2500  39.2500  57.7500 Du        
    326 ****        20.2500  39.2500  58.0000 Du        
    327 ****        20.2500  39.2500  58.2500 Du        
    328 ****        20.2500  39.2500  58.5000 Du        
    329 ****        20.2500  39.2500  58.7500 Du        
    330 ****        20.2500  39.2500  59.0000 Du        
    331 ****        20.2500  39.5000  57.7500 Du        
    332 ****        20.2500  39.5000  58.0000 Du        
    333 ****        20.2500  39.5000  58.2500 Du        
    334 ****        20.2500  39.5000  58.5000 Du        
    335 ****        20.2500  39.5000  58.7500 Du        
    336 ****        20.2500  39.5000  59.0000 Du        
    337 ****        20.2500  39.7500  57.7500 Du        
    338 ****        20.2500  39.7500  58.0000 Du        
    339 ****        20.2500  39.7500  58.2500 Du        
    340 ****        20.2500  39.7500  58.5000 Du        
    341 ****        20.2500  39.7500  58.7500 Du        
    342 ****        20.2500  39.7500  59.0000 Du        
    343 ****        20.2500  40.0000  58.0000 Du        
    344 ****        20.2500  40.0000  58.2500 Du        
    345 ****        20.2500  40.0000  58.5000 Du        
    346 ****        20.2500  40.0000  58.7500 Du        
    347 ****        20.2500  40.2500  58.0000 Du        
    348 ****        20.2500  40.2500  58.2500 Du        
    349 ****        20.2500  40.2500  58.5000 Du        
    350 ****        20.2500  40.5000  58.2500 Du        
    351 ****        20.2500  40.7500  58.2500 Du        
    352 ****        20.2500  44.2500  54.7500 Du        
    353 ****        20.2500  44.2500  55.0000 Du        
    354 ****        20.2500  44.2500  55.2500 Du        
    355 ****        20.2500  44.5000  55.0000 Du        
    356 ****        20.2500  44.7500  54.7500 Du        
    357 ****        20.2500  44.7500  55.0000 Du        
    358 ****        20.5000  35.7500  57.5000 Du        
    359 ****        20.5000  35.7500  57.7500 Du        
    360 ****        20.5000  36.0000  57.2500 Du        
    361 ****        20.5000  36.0000  57.5000 Du        
    362 ****        20.5000  36.0000  57.7500 Du        
    363 ****        20.5000  36.0000  58.0000 Du        
    364 ****        20.5000  36.2500  57.2500 Du        
    365 ****        20.5000  36.2500  57.5000 Du        
    366 ****        20.5000  36.2500  57.7500 Du        
    367 ****        20.5000  36.2500  58.0000 Du        
    368 ****        20.5000  36.2500  58.2500 Du        
    369 ****        20.5000  36.5000  57.2500 Du        
    370 ****        20.5000  36.5000  57.5000 Du        
    371 ****        20.5000  36.5000  57.7500 Du        
    372 ****        20.5000  36.5000  58.0000 Du        
    373 ****        20.5000  36.5000  58.2500 Du        
    374 ****        20.5000  36.5000  58.5000 Du        
    375 ****        20.5000  36.5000  58.7500 Du        
    376 ****        20.5000  36.7500  57.2500 Du        
    377 ****        20.5000  36.7500  57.5000 Du        
    378 ****        20.5000  36.7500  57.7500 Du        
    379 ****        20.5000  36.7500  58.0000 Du        
    380 ****        20.5000  36.7500  58.2500 Du        
    381 ****        20.5000  36.7500  58.5000 Du        
    382 ****        20.5000  36.7500  58.7500 Du        
    383 ****        20.5000  36.7500  59.0000 Du        
    384 ****        20.5000  37.0000  57.2500 Du        
    385 ****        20.5000  37.0000  57.5000 Du        
    386 ****        20.5000  37.0000  57.7500 Du        
    387 ****        20.5000  37.0000  58.0000 Du        
    388 ****        20.5000  37.0000  58.2500 Du        
    389 ****        20.5000  37.0000  58.5000 Du        
    390 ****        20.5000  37.0000  58.7500 Du        
    391 ****        20.5000  37.0000  59.0000 Du        
    392 ****        20.5000  37.2500  57.2500 Du        
    393 ****        20.5000  37.2500  57.5000 Du        
    394 ****        20.5000  37.2500  57.7500 Du        
    395 ****        20.5000  37.2500  58.0000 Du        
    396 ****        20.5000  37.2500  58.2500 Du        
    397 ****        20.5000  37.2500  58.5000 Du        
    398 ****        20.5000  37.2500  58.7500 Du        
    399 ****        20.5000  37.2500  59.0000 Du        
    400 ****        20.5000  37.2500  59.2500 Du        
    401 ****        20.5000  37.5000  57.5000 Du        
    402 ****        20.5000  37.5000  57.7500 Du        
    403 ****        20.5000  37.5000  58.0000 Du        
    404 ****        20.5000  37.5000  58.2500 Du        
    405 ****        20.5000  37.5000  58.5000 Du        
    406 ****        20.5000  37.5000  58.7500 Du        
    407 ****        20.5000  37.5000  59.0000 Du        
    408 ****        20.5000  37.5000  59.2500 Du        
    409 ****        20.5000  37.7500  57.5000 Du        
    410 ****        20.5000  37.7500  57.7500 Du        
    411 ****        20.5000  37.7500  58.0000 Du        
    412 ****        20.5000  37.7500  58.2500 Du        
    413 ****        20.5000  37.7500  58.5000 Du        
    414 ****        20.5000  37.7500  58.7500 Du        
    415 ****        20.5000  37.7500  59.0000 Du        
    416 ****        20.5000  37.7500  59.2500 Du        
    417 ****        20.5000  38.0000  57.5000 Du        
    418 ****        20.5000  38.0000  57.7500 Du        
    419 ****        20.5000  38.0000  58.0000 Du        
    420 ****        20.5000  38.0000  58.2500 Du        
    421 ****        20.5000  38.0000  58.5000 Du        
    422 ****        20.5000  38.0000  58.7500 Du        
    423 ****        20.5000  38.0000  59.0000 Du        
    424 ****        20.5000  38.0000  59.2500 Du        
    425 ****        20.5000  38.2500  57.5000 Du        
    426 ****        20.5000  38.2500  57.7500 Du        
    427 ****        20.5000  38.2500  58.0000 Du        
    428 ****        20.5000  38.2500  58.2500 Du        
    429 ****        20.5000  38.2500  58.5000 Du        
    430 ****        20.5000  38.2500  58.7500 Du        
    431 ****        20.5000  38.2500  59.0000 Du        
    432 ****        20.5000  38.2500  59.2500 Du        
    433 ****        20.5000  38.5000  57.7500 Du        
    434 ****        20.5000  38.5000  58.0000 Du        
    435 ****        20.5000  38.5000  58.2500 Du        
    436 ****        20.5000  38.5000  58.5000 Du        
    437 ****        20.5000  38.5000  58.7500 Du        
    438 ****        20.5000  38.5000  59.0000 Du        
    439 ****        20.5000  38.5000  59.2500 Du        
    440 ****        20.5000  38.7500  57.7500 Du        
    441 ****        20.5000  38.7500  58.0000 Du        
    442 ****        20.5000  38.7500  58.2500 Du        
    443 ****        20.5000  38.7500  58.5000 Du        
    444 ****        20.5000  38.7500  58.7500 Du        
    445 ****        20.5000  38.7500  59.0000 Du        
    446 ****        20.5000  38.7500  59.2500 Du        
    447 ****        20.5000  39.0000  57.7500 Du        
    448 ****        20.5000  39.0000  58.0000 Du        
    449 ****        20.5000  39.0000  58.2500 Du        
    450 ****        20.5000  39.0000  58.5000 Du        
    451 ****        20.5000  39.0000  58.7500 Du        
    452 ****        20.5000  39.0000  59.0000 Du        
    453 ****        20.5000  39.0000  59.2500 Du        
    454 ****        20.5000  39.2500  57.7500 Du        
    455 ****        20.5000  39.2500  58.0000 Du        
    456 ****        20.5000  39.2500  58.2500 Du        
    457 ****        20.5000  39.2500  58.5000 Du        
    458 ****        20.5000  39.2500  58.7500 Du        
    459 ****        20.5000  39.2500  59.0000 Du        
    460 ****        20.5000  39.2500  59.2500 Du        
    461 ****        20.5000  39.5000  58.0000 Du        
    462 ****        20.5000  39.5000  58.2500 Du        
    463 ****        20.5000  39.5000  58.5000 Du        
    464 ****        20.5000  39.5000  58.7500 Du        
    465 ****        20.5000  39.7500  58.0000 Du        
    466 ****        20.5000  39.7500  58.2500 Du        
    467 ****        20.5000  39.7500  58.5000 Du        
    468 ****        20.5000  39.7500  58.7500 Du        
    469 ****        20.5000  40.0000  58.0000 Du        
    470 ****        20.5000  40.0000  58.2500 Du        
    471 ****        20.5000  40.0000  58.5000 Du        
    472 ****        20.5000  40.0000  58.7500 Du        
    473 ****        20.5000  40.2500  58.0000 Du        
    474 ****        20.5000  40.2500  58.2500 Du        
    475 ****        20.5000  44.0000  55.2500 Du        
    476 ****        20.5000  44.0000  55.5000 Du        
    477 ****        20.5000  44.0000  55.7500 Du        
    478 ****        20.5000  44.0000  56.0000 Du        
    479 ****        20.5000  44.2500  54.5000 Du        
    480 ****        20.5000  44.2500  54.7500 Du        
    481 ****        20.5000  44.2500  55.0000 Du        
    482 ****        20.5000  44.2500  55.2500 Du        
    483 ****        20.5000  44.2500  55.5000 Du        
    484 ****        20.5000  44.2500  55.7500 Du        
    485 ****        20.5000  44.2500  56.0000 Du        
    486 ****        20.5000  44.5000  54.5000 Du        
    487 ****        20.5000  44.5000  54.7500 Du        
    488 ****        20.5000  44.5000  55.0000 Du        
    489 ****        20.5000  44.5000  55.2500 Du        
    490 ****        20.5000  44.7500  54.2500 Du        
    491 ****        20.5000  44.7500  54.5000 Du        
    492 ****        20.5000  44.7500  54.7500 Du        
    493 ****        20.5000  44.7500  55.0000 Du        
    494 ****        20.5000  44.7500  55.2500 Du        
    495 ****        20.5000  45.0000  54.2500 Du        
    496 ****        20.5000  45.0000  54.5000 Du        
    497 ****        20.5000  45.0000  54.7500 Du        
    498 ****        20.5000  45.0000  55.0000 Du        
    499 ****        20.5000  45.2500  54.2500 Du        
    500 ****        20.5000  45.2500  54.5000 Du        
    501 ****        20.7500  34.7500  57.7500 Du        
    502 ****        20.7500  35.0000  57.7500 Du        
    503 ****        20.7500  35.2500  57.7500 Du        
    504 ****        20.7500  35.5000  57.7500 Du        
    505 ****        20.7500  35.5000  58.0000 Du        
    506 ****        20.7500  35.7500  57.5000 Du        
    507 ****        20.7500  35.7500  57.7500 Du        
    508 ****        20.7500  35.7500  58.0000 Du        
    509 ****        20.7500  35.7500  58.2500 Du        
    510 ****        20.7500  36.0000  57.5000 Du        
    511 ****        20.7500  36.0000  57.7500 Du        
    512 ****        20.7500  36.0000  58.0000 Du        
    513 ****        20.7500  36.0000  58.2500 Du        
    514 ****        20.7500  36.0000  58.5000 Du        
    515 ****        20.7500  36.2500  57.5000 Du        
    516 ****        20.7500  36.2500  57.7500 Du        
    517 ****        20.7500  36.2500  58.0000 Du        
    518 ****        20.7500  36.2500  58.2500 Du        
    519 ****        20.7500  36.2500  58.5000 Du        
    520 ****        20.7500  36.2500  58.7500 Du        
    521 ****        20.7500  36.2500  59.0000 Du        
    522 ****        20.7500  36.5000  57.2500 Du        
    523 ****        20.7500  36.5000  57.5000 Du        
    524 ****        20.7500  36.5000  57.7500 Du        
    525 ****        20.7500  36.5000  58.0000 Du        
    526 ****        20.7500  36.5000  58.2500 Du        
    527 ****        20.7500  36.5000  58.5000 Du        
    528 ****        20.7500  36.5000  58.7500 Du        
    529 ****        20.7500  36.5000  59.0000 Du        
    530 ****        20.7500  36.5000  59.2500 Du        
    531 ****        20.7500  36.7500  57.2500 Du        
    532 ****        20.7500  36.7500  57.5000 Du        
    533 ****        20.7500  36.7500  57.7500 Du        
    534 ****        20.7500  36.7500  58.0000 Du        
    535 ****        20.7500  36.7500  58.2500 Du        
    536 ****        20.7500  36.7500  58.5000 Du        
    537 ****        20.7500  36.7500  58.7500 Du        
    538 ****        20.7500  36.7500  59.0000 Du        
    539 ****        20.7500  36.7500  59.2500 Du        
    540 ****        20.7500  37.0000  57.2500 Du        
    541 ****        20.7500  37.0000  57.5000 Du        
    542 ****        20.7500  37.0000  57.7500 Du        
    543 ****        20.7500  37.0000  58.0000 Du        
    544 ****        20.7500  37.0000  58.2500 Du        
    545 ****        20.7500  37.0000  58.5000 Du        
    546 ****        20.7500  37.0000  58.7500 Du        
    547 ****        20.7500  37.0000  59.0000 Du        
    548 ****        20.7500  37.0000  59.2500 Du        
    549 ****        20.7500  37.2500  57.2500 Du        
    550 ****        20.7500  37.2500  57.5000 Du        
    551 ****        20.7500  37.2500  57.7500 Du        
    552 ****        20.7500  37.2500  58.0000 Du        
    553 ****        20.7500  37.2500  58.2500 Du        
    554 ****        20.7500  37.2500  58.5000 Du        
    555 ****        20.7500  37.2500  58.7500 Du        
    556 ****        20.7500  37.2500  59.0000 Du        
    557 ****        20.7500  37.2500  59.2500 Du        
    558 ****        20.7500  37.5000  57.2500 Du        
    559 ****        20.7500  37.5000  57.5000 Du        
    560 ****        20.7500  37.5000  57.7500 Du        
    561 ****        20.7500  37.5000  58.0000 Du        
    562 ****        20.7500  37.5000  58.2500 Du        
    563 ****        20.7500  37.5000  58.5000 Du        
    564 ****        20.7500  37.5000  58.7500 Du        
    565 ****        20.7500  37.5000  59.0000 Du        
    566 ****        20.7500  37.5000  59.2500 Du        
    567 ****        20.7500  37.7500  57.5000 Du        
    568 ****        20.7500  37.7500  57.7500 Du        
    569 ****        20.7500  37.7500  58.0000 Du        
    570 ****        20.7500  37.7500  58.2500 Du        
    571 ****        20.7500  37.7500  58.5000 Du        
    572 ****        20.7500  37.7500  58.7500 Du        
    573 ****        20.7500  37.7500  59.0000 Du        
    574 ****        20.7500  37.7500  59.2500 Du        
    575 ****        20.7500  38.0000  57.5000 Du        
    576 ****        20.7500  38.0000  57.7500 Du        
    577 ****        20.7500  38.0000  58.0000 Du        
    578 ****        20.7500  38.0000  58.2500 Du        
    579 ****        20.7500  38.0000  58.5000 Du        
    580 ****        20.7500  38.0000  58.7500 Du        
    581 ****        20.7500  38.0000  59.0000 Du        
    582 ****        20.7500  38.0000  59.2500 Du        
    583 ****        20.7500  38.2500  57.5000 Du        
    584 ****        20.7500  38.2500  57.7500 Du        
    585 ****        20.7500  38.2500  58.0000 Du        
    586 ****        20.7500  38.2500  58.2500 Du        
    587 ****        20.7500  38.2500  58.5000 Du        
    588 ****        20.7500  38.2500  58.7500 Du        
    589 ****        20.7500  38.2500  59.0000 Du        
    590 ****        20.7500  38.2500  59.2500 Du        
    591 ****        20.7500  38.5000  57.5000 Du        
    592 ****        20.7500  38.5000  57.7500 Du        
    593 ****        20.7500  38.5000  58.0000 Du        
    594 ****        20.7500  38.5000  58.2500 Du        
    595 ****        20.7500  38.5000  58.5000 Du        
    596 ****        20.7500  38.5000  58.7500 Du        
    597 ****        20.7500  38.5000  59.0000 Du        
    598 ****        20.7500  38.5000  59.2500 Du        
    599 ****        20.7500  38.7500  57.7500 Du        
    600 ****        20.7500  38.7500  58.0000 Du        
    601 ****        20.7500  38.7500  58.2500 Du        
    602 ****        20.7500  38.7500  58.5000 Du        
    603 ****        20.7500  38.7500  58.7500 Du        
    604 ****        20.7500  38.7500  59.0000 Du        
    605 ****        20.7500  38.7500  59.2500 Du        
    606 ****        20.7500  39.0000  57.7500 Du        
    607 ****        20.7500  39.0000  58.0000 Du        
    608 ****        20.7500  39.0000  58.2500 Du        
    609 ****        20.7500  39.0000  58.5000 Du        
    610 ****        20.7500  39.0000  58.7500 Du        
    611 ****        20.7500  39.0000  59.0000 Du        
    612 ****        20.7500  39.0000  59.2500 Du        
    613 ****        20.7500  39.2500  57.7500 Du        
    614 ****        20.7500  39.2500  58.0000 Du        
    615 ****        20.7500  39.2500  58.2500 Du        
    616 ****        20.7500  39.2500  58.5000 Du        
    617 ****        20.7500  39.2500  58.7500 Du        
    618 ****        20.7500  39.2500  59.0000 Du        
    619 ****        20.7500  39.2500  59.2500 Du        
    620 ****        20.7500  39.5000  58.0000 Du        
    621 ****        20.7500  39.5000  58.2500 Du        
    622 ****        20.7500  39.5000  58.5000 Du        
    623 ****        20.7500  39.5000  58.7500 Du        
    624 ****        20.7500  39.5000  59.0000 Du        
    625 ****        20.7500  39.7500  58.0000 Du        
    626 ****        20.7500  39.7500  58.2500 Du        
    627 ****        20.7500  39.7500  58.5000 Du        
    628 ****        20.7500  39.7500  58.7500 Du        
    629 ****        20.7500  40.0000  58.0000 Du        
    630 ****        20.7500  40.0000  58.2500 Du        
    631 ****        20.7500  40.0000  58.5000 Du        
    632 ****        20.7500  40.2500  58.2500 Du        
    633 ****        20.7500  43.7500  55.7500 Du        
    634 ****        20.7500  43.7500  56.0000 Du        
    635 ****        20.7500  43.7500  56.2500 Du        
    636 ****        20.7500  44.0000  55.0000 Du        
    637 ****        20.7500  44.0000  55.2500 Du        
    638 ****        20.7500  44.0000  55.5000 Du        
    639 ****        20.7500  44.0000  55.7500 Du        
    640 ****        20.7500  44.0000  56.0000 Du        
    641 ****        20.7500  44.0000  56.2500 Du        
    642 ****        20.7500  44.2500  54.5000 Du        
    643 ****        20.7500  44.2500  54.7500 Du        
    644 ****        20.7500  44.2500  55.0000 Du        
    645 ****        20.7500  44.2500  55.2500 Du        
    646 ****        20.7500  44.2500  55.5000 Du        
    647 ****        20.7500  44.2500  55.7500 Du        
    648 ****        20.7500  44.2500  56.0000 Du        
    649 ****        20.7500  44.5000  54.2500 Du        
    650 ****        20.7500  44.5000  54.5000 Du        
    651 ****        20.7500  44.5000  54.7500 Du        
    652 ****        20.7500  44.5000  55.0000 Du        
    653 ****        20.7500  44.5000  55.2500 Du        
    654 ****        20.7500  44.7500  54.2500 Du        
    655 ****        20.7500  44.7500  54.5000 Du        
    656 ****        20.7500  44.7500  54.7500 Du        
    657 ****        20.7500  44.7500  55.0000 Du        
    658 ****        20.7500  44.7500  55.2500 Du        
    659 ****        20.7500  45.0000  54.2500 Du        
    660 ****        20.7500  45.0000  54.5000 Du        
    661 ****        20.7500  45.0000  54.7500 Du        
    662 ****        20.7500  45.0000  55.0000 Du        
    663 ****        20.7500  45.0000  55.2500 Du        
    664 ****        20.7500  45.2500  54.2500 Du        
    665 ****        20.7500  45.2500  54.5000 Du        
    666 ****        20.7500  45.2500  54.7500 Du        
    667 ****        20.7500  45.2500  55.0000 Du        
    668 ****        21.0000  34.2500  57.7500 Du        
    669 ****        21.0000  34.2500  58.0000 Du        
    670 ****        21.0000  34.2500  58.2500 Du        
    671 ****        21.0000  34.2500  58.5000 Du        
    672 ****        21.0000  34.5000  57.7500 Du        
    673 ****        21.0000  34.5000  58.0000 Du        
    674 ****        21.0000  34.5000  58.2500 Du        
    675 ****        21.0000  34.7500  57.7500 Du        
    676 ****        21.0000  34.7500  58.0000 Du        
    677 ****        21.0000  34.7500  58.2500 Du        
    678 ****        21.0000  34.7500  58.5000 Du        
    679 ****        21.0000  35.0000  57.7500 Du        
    680 ****        21.0000  35.0000  58.0000 Du        
    681 ****        21.0000  35.0000  58.2500 Du        
    682 ****        21.0000  35.0000  58.5000 Du        
    683 ****        21.0000  35.2500  58.0000 Du        
    684 ****        21.0000  35.2500  58.2500 Du        
    685 ****        21.0000  35.2500  58.5000 Du        
    686 ****        21.0000  35.5000  57.7500 Du        
    687 ****        21.0000  35.5000  58.0000 Du        
    688 ****        21.0000  35.5000  58.2500 Du        
    689 ****        21.0000  35.5000  58.5000 Du        
    690 ****        21.0000  35.5000  58.7500 Du        
    691 ****        21.0000  35.5000  59.0000 Du        
    692 ****        21.0000  35.7500  57.7500 Du        
    693 ****        21.0000  35.7500  58.0000 Du        
    694 ****        21.0000  35.7500  58.2500 Du        
    695 ****        21.0000  35.7500  58.5000 Du        
    696 ****        21.0000  35.7500  58.7500 Du        
    697 ****        21.0000  35.7500  59.0000 Du        
    698 ****        21.0000  35.7500  59.2500 Du        
    699 ****        21.0000  36.0000  57.7500 Du        
    700 ****        21.0000  36.0000  58.0000 Du        
    701 ****        21.0000  36.0000  58.2500 Du        
    702 ****        21.0000  36.0000  58.5000 Du        
    703 ****        21.0000  36.0000  58.7500 Du        
    704 ****        21.0000  36.0000  59.0000 Du        
    705 ****        21.0000  36.0000  59.2500 Du        
    706 ****        21.0000  36.2500  57.5000 Du        
    707 ****        21.0000  36.2500  57.7500 Du        
    708 ****        21.0000  36.2500  58.0000 Du        
    709 ****        21.0000  36.2500  58.2500 Du        
    710 ****        21.0000  36.2500  58.5000 Du        
    711 ****        21.0000  36.2500  58.7500 Du        
    712 ****        21.0000  36.2500  59.0000 Du        
    713 ****        21.0000  36.2500  59.2500 Du        
    714 ****        21.0000  36.5000  57.5000 Du        
    715 ****        21.0000  36.5000  57.7500 Du        
    716 ****        21.0000  36.5000  58.0000 Du        
    717 ****        21.0000  36.5000  58.2500 Du        
    718 ****        21.0000  36.5000  58.5000 Du        
    719 ****        21.0000  36.5000  58.7500 Du        
    720 ****        21.0000  36.5000  59.0000 Du        
    721 ****        21.0000  36.5000  59.2500 Du        
    722 ****        21.0000  36.7500  57.2500 Du        
    723 ****        21.0000  36.7500  57.5000 Du        
    724 ****        21.0000  36.7500  57.7500 Du        
    725 ****        21.0000  36.7500  58.0000 Du        
    726 ****        21.0000  36.7500  58.2500 Du        
    727 ****        21.0000  36.7500  58.5000 Du        
    728 ****        21.0000  36.7500  58.7500 Du        
    729 ****        21.0000  36.7500  59.0000 Du        
    730 ****        21.0000  36.7500  59.2500 Du        
    731 ****        21.0000  37.0000  57.2500 Du        
    732 ****        21.0000  37.0000  57.5000 Du        
    733 ****        21.0000  37.0000  57.7500 Du        
    734 ****        21.0000  37.0000  58.0000 Du        
    735 ****        21.0000  37.0000  58.2500 Du        
    736 ****        21.0000  37.0000  58.5000 Du        
    737 ****        21.0000  37.0000  58.7500 Du        
    738 ****        21.0000  37.0000  59.0000 Du        
    739 ****        21.0000  37.0000  59.2500 Du        
    740 ****        21.0000  37.2500  57.2500 Du        
    741 ****        21.0000  37.2500  57.5000 Du        
    742 ****        21.0000  37.2500  57.7500 Du        
    743 ****        21.0000  37.2500  58.0000 Du        
    744 ****        21.0000  37.2500  58.2500 Du        
    745 ****        21.0000  37.2500  58.5000 Du        
    746 ****        21.0000  37.2500  58.7500 Du        
    747 ****        21.0000  37.2500  59.0000 Du        
    748 ****        21.0000  37.2500  59.2500 Du        
    749 ****        21.0000  37.5000  57.2500 Du        
    750 ****        21.0000  37.5000  57.5000 Du        
    751 ****        21.0000  37.5000  57.7500 Du        
    752 ****        21.0000  37.5000  58.0000 Du        
    753 ****        21.0000  37.5000  58.2500 Du        
    754 ****        21.0000  37.5000  58.5000 Du        
    755 ****        21.0000  37.5000  58.7500 Du        
    756 ****        21.0000  37.5000  59.0000 Du        
    757 ****        21.0000  37.5000  59.2500 Du        
    758 ****        21.0000  37.7500  57.2500 Du        
    759 ****        21.0000  37.7500  57.5000 Du        
    760 ****        21.0000  37.7500  57.7500 Du        
    761 ****        21.0000  37.7500  58.0000 Du        
    762 ****        21.0000  37.7500  58.2500 Du        
    763 ****        21.0000  37.7500  58.5000 Du        
    764 ****        21.0000  37.7500  58.7500 Du        
    765 ****        21.0000  37.7500  59.0000 Du        
    766 ****        21.0000  37.7500  59.2500 Du        
    767 ****        21.0000  38.0000  57.2500 Du        
    768 ****        21.0000  38.0000  57.5000 Du        
    769 ****        21.0000  38.0000  57.7500 Du        
    770 ****        21.0000  38.0000  58.0000 Du        
    771 ****        21.0000  38.0000  58.2500 Du        
    772 ****        21.0000  38.0000  58.5000 Du        
    773 ****        21.0000  38.0000  58.7500 Du        
    774 ****        21.0000  38.0000  59.0000 Du        
    775 ****        21.0000  38.0000  59.2500 Du        
    776 ****        21.0000  38.2500  57.5000 Du        
    777 ****        21.0000  38.2500  57.7500 Du        
    778 ****        21.0000  38.2500  58.0000 Du        
    779 ****        21.0000  38.2500  58.2500 Du        
    780 ****        21.0000  38.2500  58.5000 Du        
    781 ****        21.0000  38.2500  58.7500 Du        
    782 ****        21.0000  38.2500  59.0000 Du        
    783 ****        21.0000  38.2500  59.2500 Du        
    784 ****        21.0000  38.5000  57.5000 Du        
    785 ****        21.0000  38.5000  57.7500 Du        
    786 ****        21.0000  38.5000  58.0000 Du        
    787 ****        21.0000  38.5000  58.2500 Du        
    788 ****        21.0000  38.5000  58.5000 Du        
    789 ****        21.0000  38.5000  58.7500 Du        
    790 ****        21.0000  38.5000  59.0000 Du        
    791 ****        21.0000  38.5000  59.2500 Du        
    792 ****        21.0000  38.7500  57.5000 Du        
    793 ****        21.0000  38.7500  57.7500 Du        
    794 ****        21.0000  38.7500  58.0000 Du        
    795 ****        21.0000  38.7500  58.2500 Du        
    796 ****        21.0000  38.7500  58.5000 Du        
    797 ****        21.0000  38.7500  58.7500 Du        
    798 ****        21.0000  38.7500  59.0000 Du        
    799 ****        21.0000  38.7500  59.2500 Du        
    800 ****        21.0000  39.0000  57.7500 Du        
    801 ****        21.0000  39.0000  58.0000 Du        
    802 ****        21.0000  39.0000  58.2500 Du        
    803 ****        21.0000  39.0000  58.5000 Du        
    804 ****        21.0000  39.0000  58.7500 Du        
    805 ****        21.0000  39.0000  59.0000 Du        
    806 ****        21.0000  39.2500  57.7500 Du        
    807 ****        21.0000  39.2500  58.0000 Du        
    808 ****        21.0000  39.2500  58.2500 Du        
    809 ****        21.0000  39.2500  58.5000 Du        
    810 ****        21.0000  39.2500  58.7500 Du        
    811 ****        21.0000  39.2500  59.0000 Du        
    812 ****        21.0000  39.5000  58.0000 Du        
    813 ****        21.0000  39.5000  58.2500 Du        
    814 ****        21.0000  39.7500  58.2500 Du        
    815 ****        21.0000  43.0000  57.0000 Du        
    816 ****        21.0000  43.2500  56.7500 Du        
    817 ****        21.0000  43.2500  57.0000 Du        
    818 ****        21.0000  43.5000  56.2500 Du        
    819 ****        21.0000  43.7500  55.5000 Du        
    820 ****        21.0000  43.7500  55.7500 Du        
    821 ****        21.0000  43.7500  56.0000 Du        
    822 ****        21.0000  43.7500  56.2500 Du        
    823 ****        21.0000  44.0000  54.7500 Du        
    824 ****        21.0000  44.0000  55.0000 Du        
    825 ****        21.0000  44.0000  55.2500 Du        
    826 ****        21.0000  44.0000  55.5000 Du        
    827 ****        21.0000  44.0000  55.7500 Du        
    828 ****        21.0000  44.0000  56.0000 Du        
    829 ****        21.0000  44.0000  56.2500 Du        
    830 ****        21.0000  44.2500  54.2500 Du        
    831 ****        21.0000  44.2500  54.5000 Du        
    832 ****        21.0000  44.2500  54.7500 Du        
    833 ****        21.0000  44.2500  55.0000 Du        
    834 ****        21.0000  44.2500  55.2500 Du        
    835 ****        21.0000  44.2500  55.5000 Du        
    836 ****        21.0000  44.2500  55.7500 Du        
    837 ****        21.0000  44.2500  56.0000 Du        
    838 ****        21.0000  44.5000  54.2500 Du        
    839 ****        21.0000  44.5000  54.5000 Du        
    840 ****        21.0000  44.5000  54.7500 Du        
    841 ****        21.0000  44.5000  55.0000 Du        
    842 ****        21.0000  44.5000  55.2500 Du        
    843 ****        21.0000  44.5000  55.5000 Du        
    844 ****        21.0000  44.5000  55.7500 Du        
    845 ****        21.0000  44.7500  54.2500 Du        
    846 ****        21.0000  44.7500  54.5000 Du        
    847 ****        21.0000  44.7500  54.7500 Du        
    848 ****        21.0000  44.7500  55.0000 Du        
    849 ****        21.0000  44.7500  55.2500 Du        
    850 ****        21.0000  44.7500  55.5000 Du        
    851 ****        21.0000  45.0000  54.2500 Du        
    852 ****        21.0000  45.0000  54.5000 Du        
    853 ****        21.0000  45.0000  54.7500 Du        
    854 ****        21.0000  45.0000  55.0000 Du        
    855 ****        21.0000  45.0000  55.2500 Du        
    856 ****        21.0000  45.2500  54.2500 Du        
    857 ****        21.0000  45.2500  54.5000 Du        
    858 ****        21.0000  45.2500  54.7500 Du        
    859 ****        21.0000  45.2500  55.0000 Du        
    860 ****        21.0000  45.2500  55.2500 Du        
    861 ****        21.2500  34.0000  58.0000 Du        
    862 ****        21.2500  34.0000  58.2500 Du        
    863 ****        21.2500  34.0000  58.5000 Du        
    864 ****        21.2500  34.0000  58.7500 Du        
    865 ****        21.2500  34.0000  59.0000 Du        
    866 ****        21.2500  34.0000  59.2500 Du        
    867 ****        21.2500  34.0000  59.5000 Du        
    868 ****        21.2500  34.0000  59.7500 Du        
    869 ****        21.2500  34.0000  60.0000 Du        
    870 ****        21.2500  34.2500  58.0000 Du        
    871 ****        21.2500  34.2500  58.2500 Du        
    872 ****        21.2500  34.2500  58.5000 Du        
    873 ****        21.2500  34.2500  58.7500 Du        
    874 ****        21.2500  34.2500  59.0000 Du        
    875 ****        21.2500  34.2500  59.2500 Du        
    876 ****        21.2500  34.2500  59.5000 Du        
    877 ****        21.2500  34.2500  59.7500 Du        
    878 ****        21.2500  34.2500  60.0000 Du        
    879 ****        21.2500  34.5000  58.0000 Du        
    880 ****        21.2500  34.5000  58.2500 Du        
    881 ****        21.2500  34.5000  58.5000 Du        
    882 ****        21.2500  34.5000  58.7500 Du        
    883 ****        21.2500  34.5000  59.0000 Du        
    884 ****        21.2500  34.5000  59.2500 Du        
    885 ****        21.2500  34.5000  59.5000 Du        
    886 ****        21.2500  34.5000  59.7500 Du        
    887 ****        21.2500  34.5000  60.0000 Du        
    888 ****        21.2500  34.7500  58.0000 Du        
    889 ****        21.2500  34.7500  58.2500 Du        
    890 ****        21.2500  34.7500  58.5000 Du        
    891 ****        21.2500  34.7500  58.7500 Du        
    892 ****        21.2500  34.7500  59.0000 Du        
    893 ****        21.2500  34.7500  59.2500 Du        
    894 ****        21.2500  34.7500  59.5000 Du        
    895 ****        21.2500  34.7500  59.7500 Du        
    896 ****        21.2500  34.7500  60.0000 Du        
    897 ****        21.2500  35.0000  58.0000 Du        
    898 ****        21.2500  35.0000  58.2500 Du        
    899 ****        21.2500  35.0000  58.5000 Du        
    900 ****        21.2500  35.0000  58.7500 Du        
    901 ****        21.2500  35.0000  59.0000 Du        
    902 ****        21.2500  35.0000  59.2500 Du        
    903 ****        21.2500  35.0000  59.5000 Du        
    904 ****        21.2500  35.0000  59.7500 Du        
    905 ****        21.2500  35.0000  60.0000 Du        
    906 ****        21.2500  35.2500  58.0000 Du        
    907 ****        21.2500  35.2500  58.2500 Du        
    908 ****        21.2500  35.2500  58.5000 Du        
    909 ****        21.2500  35.2500  58.7500 Du        
    910 ****        21.2500  35.2500  59.0000 Du        
    911 ****        21.2500  35.2500  59.2500 Du        
    912 ****        21.2500  35.2500  59.5000 Du        
    913 ****        21.2500  35.2500  59.7500 Du        
    914 ****        21.2500  35.5000  58.0000 Du        
    915 ****        21.2500  35.5000  58.2500 Du        
    916 ****        21.2500  35.5000  58.5000 Du        
    917 ****        21.2500  35.5000  58.7500 Du        
    918 ****        21.2500  35.5000  59.0000 Du        
    919 ****        21.2500  35.5000  59.2500 Du        
    920 ****        21.2500  35.7500  58.0000 Du        
    921 ****        21.2500  35.7500  58.2500 Du        
    922 ****        21.2500  35.7500  58.5000 Du        
    923 ****        21.2500  35.7500  58.7500 Du        
    924 ****        21.2500  35.7500  59.0000 Du        
    925 ****        21.2500  35.7500  59.2500 Du        
    926 ****        21.2500  36.0000  58.0000 Du        
    927 ****        21.2500  36.0000  58.2500 Du        
    928 ****        21.2500  36.0000  58.5000 Du        
    929 ****        21.2500  36.0000  58.7500 Du        
    930 ****        21.2500  36.0000  59.0000 Du        
    931 ****        21.2500  36.0000  59.2500 Du        
    932 ****        21.2500  36.2500  57.7500 Du        
    933 ****        21.2500  36.2500  58.0000 Du        
    934 ****        21.2500  36.2500  58.2500 Du        
    935 ****        21.2500  36.2500  58.5000 Du        
    936 ****        21.2500  36.2500  58.7500 Du        
    937 ****        21.2500  36.2500  59.0000 Du        
    938 ****        21.2500  36.2500  59.2500 Du        
    939 ****        21.2500  36.5000  57.7500 Du        
    940 ****        21.2500  36.5000  58.0000 Du        
    941 ****        21.2500  36.5000  58.2500 Du        
    942 ****        21.2500  36.5000  58.5000 Du        
    943 ****        21.2500  36.5000  58.7500 Du        
    944 ****        21.2500  36.5000  59.0000 Du        
    945 ****        21.2500  36.5000  59.2500 Du        
    946 ****        21.2500  36.7500  57.5000 Du        
    947 ****        21.2500  36.7500  57.7500 Du        
    948 ****        21.2500  36.7500  58.0000 Du        
    949 ****        21.2500  36.7500  58.2500 Du        
    950 ****        21.2500  36.7500  58.5000 Du        
    951 ****        21.2500  36.7500  58.7500 Du        
    952 ****        21.2500  36.7500  59.0000 Du        
    953 ****        21.2500  36.7500  59.2500 Du        
    954 ****        21.2500  37.0000  57.5000 Du        
    955 ****        21.2500  37.0000  57.7500 Du        
    956 ****        21.2500  37.0000  58.0000 Du        
    957 ****        21.2500  37.0000  58.2500 Du        
    958 ****        21.2500  37.0000  58.5000 Du        
    959 ****        21.2500  37.0000  58.7500 Du        
    960 ****        21.2500  37.0000  59.0000 Du        
    961 ****        21.2500  37.0000  59.2500 Du        
    962 ****        21.2500  37.2500  57.2500 Du        
    963 ****        21.2500  37.2500  57.5000 Du        
    964 ****        21.2500  37.2500  57.7500 Du        
    965 ****        21.2500  37.2500  58.0000 Du        
    966 ****        21.2500  37.2500  58.2500 Du        
    967 ****        21.2500  37.2500  58.5000 Du        
    968 ****        21.2500  37.2500  58.7500 Du        
    969 ****        21.2500  37.2500  59.0000 Du        
    970 ****        21.2500  37.2500  59.2500 Du        
    971 ****        21.2500  37.5000  57.2500 Du        
    972 ****        21.2500  37.5000  57.5000 Du        
    973 ****        21.2500  37.5000  57.7500 Du        
    974 ****        21.2500  37.5000  58.0000 Du        
    975 ****        21.2500  37.5000  58.2500 Du        
    976 ****        21.2500  37.5000  58.5000 Du        
    977 ****        21.2500  37.5000  58.7500 Du        
    978 ****        21.2500  37.5000  59.0000 Du        
    979 ****        21.2500  37.5000  59.2500 Du        
    980 ****        21.2500  37.7500  57.2500 Du        
    981 ****        21.2500  37.7500  57.5000 Du        
    982 ****        21.2500  37.7500  57.7500 Du        
    983 ****        21.2500  37.7500  58.0000 Du        
    984 ****        21.2500  37.7500  58.2500 Du        
    985 ****        21.2500  37.7500  58.5000 Du        
    986 ****        21.2500  37.7500  58.7500 Du        
    987 ****        21.2500  37.7500  59.0000 Du        
    988 ****        21.2500  37.7500  59.2500 Du        
    989 ****        21.2500  38.0000  57.2500 Du        
    990 ****        21.2500  38.0000  57.5000 Du        
    991 ****        21.2500  38.0000  57.7500 Du        
    992 ****        21.2500  38.0000  58.0000 Du        
    993 ****        21.2500  38.0000  58.2500 Du        
    994 ****        21.2500  38.0000  58.5000 Du        
    995 ****        21.2500  38.0000  58.7500 Du        
    996 ****        21.2500  38.0000  59.0000 Du        
    997 ****        21.2500  38.2500  57.5000 Du        
    998 ****        21.2500  38.2500  57.7500 Du        
    999 ****        21.2500  38.2500  58.0000 Du        
   1000 ****        21.2500  38.2500  58.2500 Du        
   1001 ****        21.2500  38.2500  58.5000 Du        
   1002 ****        21.2500  38.2500  58.7500 Du        
   1003 ****        21.2500  38.5000  57.5000 Du        
   1004 ****        21.2500  38.5000  57.7500 Du        
   1005 ****        21.2500  38.5000  58.0000 Du        
   1006 ****        21.2500  38.5000  58.2500 Du        
   1007 ****        21.2500  38.7500  57.7500 Du        
   1008 ****        21.2500  38.7500  58.0000 Du        
   1009 ****        21.2500  38.7500  58.2500 Du        
   1010 ****        21.2500  43.2500  56.7500 Du        
   1011 ****        21.2500  43.2500  57.0000 Du        
   1012 ****        21.2500  43.5000  56.2500 Du        
   1013 ****        21.2500  43.5000  56.7500 Du        
   1014 ****        21.2500  43.5000  57.0000 Du        
   1015 ****        21.2500  43.7500  55.5000 Du        
   1016 ****        21.2500  43.7500  55.7500 Du        
   1017 ****        21.2500  43.7500  56.0000 Du        
   1018 ****        21.2500  43.7500  56.2500 Du        
   1019 ****        21.2500  43.7500  56.5000 Du        
   1020 ****        21.2500  43.7500  56.7500 Du        
   1021 ****        21.2500  43.7500  57.0000 Du        
   1022 ****        21.2500  44.0000  54.7500 Du        
   1023 ****        21.2500  44.0000  55.0000 Du        
   1024 ****        21.2500  44.0000  55.2500 Du        
   1025 ****        21.2500  44.0000  55.5000 Du        
   1026 ****        21.2500  44.0000  55.7500 Du        
   1027 ****        21.2500  44.0000  56.0000 Du        
   1028 ****        21.2500  44.0000  56.2500 Du        
   1029 ****        21.2500  44.0000  56.5000 Du        
   1030 ****        21.2500  44.0000  56.7500 Du        
   1031 ****        21.2500  44.2500  54.2500 Du        
   1032 ****        21.2500  44.2500  54.5000 Du        
   1033 ****        21.2500  44.2500  54.7500 Du        
   1034 ****        21.2500  44.2500  55.0000 Du        
   1035 ****        21.2500  44.2500  55.2500 Du        
   1036 ****        21.2500  44.2500  55.5000 Du        
   1037 ****        21.2500  44.2500  55.7500 Du        
   1038 ****        21.2500  44.2500  56.0000 Du        
   1039 ****        21.2500  44.2500  56.2500 Du        
   1040 ****        21.2500  44.5000  54.2500 Du        
   1041 ****        21.2500  44.5000  54.5000 Du        
   1042 ****        21.2500  44.5000  54.7500 Du        
   1043 ****        21.2500  44.5000  55.0000 Du        
   1044 ****        21.2500  44.5000  55.2500 Du        
   1045 ****        21.2500  44.5000  55.5000 Du        
   1046 ****        21.2500  44.5000  55.7500 Du        
   1047 ****        21.2500  44.5000  56.0000 Du        
   1048 ****        21.2500  44.7500  54.2500 Du        
   1049 ****        21.2500  44.7500  54.5000 Du        
   1050 ****        21.2500  44.7500  54.7500 Du        
   1051 ****        21.2500  44.7500  55.0000 Du        
   1052 ****        21.2500  44.7500  55.2500 Du        
   1053 ****        21.2500  44.7500  55.5000 Du        
   1054 ****        21.2500  44.7500  55.7500 Du        
   1055 ****        21.2500  44.7500  56.0000 Du        
   1056 ****        21.2500  45.0000  54.2500 Du        
   1057 ****        21.2500  45.0000  54.5000 Du        
   1058 ****        21.2500  45.0000  54.7500 Du        
   1059 ****        21.2500  45.0000  55.0000 Du        
   1060 ****        21.2500  45.0000  55.2500 Du        
   1061 ****        21.2500  45.0000  55.5000 Du        
   1062 ****        21.2500  45.0000  55.7500 Du        
   1063 ****        21.2500  45.2500  54.2500 Du        
   1064 ****        21.2500  45.2500  54.5000 Du        
   1065 ****        21.2500  45.2500  54.7500 Du        
   1066 ****        21.2500  45.2500  55.0000 Du        
   1067 ****        21.2500  45.2500  55.2500 Du        
   1068 ****        21.2500  45.5000  54.2500 Du        
   1069 ****        21.2500  45.7500  54.2500 Du        
   1070 ****        21.5000  33.7500  58.2500 Du        
   1071 ****        21.5000  33.7500  58.5000 Du        
   1072 ****        21.5000  33.7500  58.7500 Du        
   1073 ****        21.5000  33.7500  59.0000 Du        
   1074 ****        21.5000  33.7500  59.2500 Du        
   1075 ****        21.5000  34.0000  58.0000 Du        
   1076 ****        21.5000  34.0000  58.2500 Du        
   1077 ****        21.5000  34.0000  58.5000 Du        
   1078 ****        21.5000  34.0000  58.7500 Du        
   1079 ****        21.5000  34.0000  59.0000 Du        
   1080 ****        21.5000  34.0000  59.2500 Du        
   1081 ****        21.5000  34.0000  59.5000 Du        
   1082 ****        21.5000  34.0000  59.7500 Du        
   1083 ****        21.5000  34.0000  60.0000 Du        
   1084 ****        21.5000  34.2500  58.2500 Du        
   1085 ****        21.5000  34.2500  58.5000 Du        
   1086 ****        21.5000  34.2500  58.7500 Du        
   1087 ****        21.5000  34.2500  59.0000 Du        
   1088 ****        21.5000  34.2500  59.2500 Du        
   1089 ****        21.5000  34.2500  59.5000 Du        
   1090 ****        21.5000  34.2500  59.7500 Du        
   1091 ****        21.5000  34.2500  60.0000 Du        
   1092 ****        21.5000  34.5000  58.2500 Du        
   1093 ****        21.5000  34.5000  58.5000 Du        
   1094 ****        21.5000  34.5000  58.7500 Du        
   1095 ****        21.5000  34.5000  59.0000 Du        
   1096 ****        21.5000  34.5000  59.2500 Du        
   1097 ****        21.5000  34.5000  59.5000 Du        
   1098 ****        21.5000  34.5000  59.7500 Du        
   1099 ****        21.5000  34.5000  60.0000 Du        
   1100 ****        21.5000  34.7500  58.2500 Du        
   1101 ****        21.5000  34.7500  58.5000 Du        
   1102 ****        21.5000  34.7500  58.7500 Du        
   1103 ****        21.5000  34.7500  59.0000 Du        
   1104 ****        21.5000  34.7500  59.2500 Du        
   1105 ****        21.5000  34.7500  59.5000 Du        
   1106 ****        21.5000  34.7500  59.7500 Du        
   1107 ****        21.5000  34.7500  60.0000 Du        
   1108 ****        21.5000  35.0000  58.2500 Du        
   1109 ****        21.5000  35.0000  58.5000 Du        
   1110 ****        21.5000  35.0000  58.7500 Du        
   1111 ****        21.5000  35.0000  59.0000 Du        
   1112 ****        21.5000  35.0000  59.2500 Du        
   1113 ****        21.5000  35.0000  59.5000 Du        
   1114 ****        21.5000  35.0000  59.7500 Du        
   1115 ****        21.5000  35.0000  60.0000 Du        
   1116 ****        21.5000  35.2500  58.2500 Du        
   1117 ****        21.5000  35.2500  58.5000 Du        
   1118 ****        21.5000  35.2500  58.7500 Du        
   1119 ****        21.5000  35.2500  59.0000 Du        
   1120 ****        21.5000  35.2500  59.2500 Du        
   1121 ****        21.5000  35.2500  59.5000 Du        
   1122 ****        21.5000  35.2500  59.7500 Du        
   1123 ****        21.5000  35.5000  58.2500 Du        
   1124 ****        21.5000  35.5000  58.5000 Du        
   1125 ****        21.5000  35.5000  58.7500 Du        
   1126 ****        21.5000  35.5000  59.0000 Du        
   1127 ****        21.5000  35.5000  59.2500 Du        
   1128 ****        21.5000  35.7500  58.2500 Du        
   1129 ****        21.5000  35.7500  58.5000 Du        
   1130 ****        21.5000  35.7500  58.7500 Du        
   1131 ****        21.5000  35.7500  59.0000 Du        
   1132 ****        21.5000  35.7500  59.2500 Du        
   1133 ****        21.5000  35.7500  59.5000 Du        
   1134 ****        21.5000  36.0000  58.2500 Du        
   1135 ****        21.5000  36.0000  58.5000 Du        
   1136 ****        21.5000  36.0000  58.7500 Du        
   1137 ****        21.5000  36.0000  59.0000 Du        
   1138 ****        21.5000  36.0000  59.2500 Du        
   1139 ****        21.5000  36.0000  59.5000 Du        
   1140 ****        21.5000  36.2500  58.0000 Du        
   1141 ****        21.5000  36.2500  58.2500 Du        
   1142 ****        21.5000  36.2500  58.5000 Du        
   1143 ****        21.5000  36.2500  58.7500 Du        
   1144 ****        21.5000  36.2500  59.0000 Du        
   1145 ****        21.5000  36.2500  59.2500 Du        
   1146 ****        21.5000  36.2500  59.5000 Du        
   1147 ****        21.5000  36.5000  58.0000 Du        
   1148 ****        21.5000  36.5000  58.2500 Du        
   1149 ****        21.5000  36.5000  58.5000 Du        
   1150 ****        21.5000  36.5000  58.7500 Du        
   1151 ****        21.5000  36.5000  59.0000 Du        
   1152 ****        21.5000  36.5000  59.2500 Du        
   1153 ****        21.5000  36.7500  57.7500 Du        
   1154 ****        21.5000  36.7500  58.0000 Du        
   1155 ****        21.5000  36.7500  58.2500 Du        
   1156 ****        21.5000  36.7500  58.5000 Du        
   1157 ****        21.5000  36.7500  58.7500 Du        
   1158 ****        21.5000  36.7500  59.0000 Du        
   1159 ****        21.5000  36.7500  59.2500 Du        
   1160 ****        21.5000  37.0000  57.7500 Du        
   1161 ****        21.5000  37.0000  58.0000 Du        
   1162 ****        21.5000  37.0000  58.2500 Du        
   1163 ****        21.5000  37.0000  58.5000 Du        
   1164 ****        21.5000  37.0000  58.7500 Du        
   1165 ****        21.5000  37.0000  59.0000 Du        
   1166 ****        21.5000  37.0000  59.2500 Du        
   1167 ****        21.5000  37.2500  57.5000 Du        
   1168 ****        21.5000  37.2500  57.7500 Du        
   1169 ****        21.5000  37.2500  58.0000 Du        
   1170 ****        21.5000  37.2500  58.2500 Du        
   1171 ****        21.5000  37.2500  58.5000 Du        
   1172 ****        21.5000  37.2500  58.7500 Du        
   1173 ****        21.5000  37.2500  59.0000 Du        
   1174 ****        21.5000  37.2500  59.2500 Du        
   1175 ****        21.5000  37.5000  57.5000 Du        
   1176 ****        21.5000  37.5000  57.7500 Du        
   1177 ****        21.5000  37.5000  58.0000 Du        
   1178 ****        21.5000  37.5000  58.2500 Du        
   1179 ****        21.5000  37.5000  58.5000 Du        
   1180 ****        21.5000  37.5000  58.7500 Du        
   1181 ****        21.5000  37.7500  57.5000 Du        
   1182 ****        21.5000  37.7500  57.7500 Du        
   1183 ****        21.5000  37.7500  58.0000 Du        
   1184 ****        21.5000  37.7500  58.2500 Du        
   1185 ****        21.5000  38.0000  57.5000 Du        
   1186 ****        21.5000  38.0000  57.7500 Du        
   1187 ****        21.5000  38.0000  58.0000 Du        
   1188 ****        21.5000  38.0000  58.2500 Du        
   1189 ****        21.5000  38.2500  57.7500 Du        
   1190 ****        21.5000  43.0000  57.2500 Du        
   1191 ****        21.5000  43.2500  56.7500 Du        
   1192 ****        21.5000  43.2500  57.0000 Du        
   1193 ****        21.5000  43.2500  57.2500 Du        
   1194 ****        21.5000  43.2500  57.5000 Du        
   1195 ****        21.5000  43.5000  56.2500 Du        
   1196 ****        21.5000  43.5000  56.5000 Du        
   1197 ****        21.5000  43.5000  56.7500 Du        
   1198 ****        21.5000  43.5000  57.0000 Du        
   1199 ****        21.5000  43.5000  57.2500 Du        
   1200 ****        21.5000  43.7500  55.5000 Du        
   1201 ****        21.5000  43.7500  55.7500 Du        
   1202 ****        21.5000  43.7500  56.0000 Du        
   1203 ****        21.5000  43.7500  56.2500 Du        
   1204 ****        21.5000  43.7500  56.5000 Du        
   1205 ****        21.5000  43.7500  56.7500 Du        
   1206 ****        21.5000  43.7500  57.0000 Du        
   1207 ****        21.5000  43.7500  57.2500 Du        
   1208 ****        21.5000  44.0000  54.5000 Du        
   1209 ****        21.5000  44.0000  54.7500 Du        
   1210 ****        21.5000  44.0000  55.0000 Du        
   1211 ****        21.5000  44.0000  55.2500 Du        
   1212 ****        21.5000  44.0000  55.5000 Du        
   1213 ****        21.5000  44.0000  55.7500 Du        
   1214 ****        21.5000  44.0000  56.0000 Du        
   1215 ****        21.5000  44.0000  56.2500 Du        
   1216 ****        21.5000  44.0000  56.5000 Du        
   1217 ****        21.5000  44.0000  56.7500 Du        
   1218 ****        21.5000  44.0000  57.0000 Du        
   1219 ****        21.5000  44.0000  57.2500 Du        
   1220 ****        21.5000  44.2500  54.2500 Du        
   1221 ****        21.5000  44.2500  54.5000 Du        
   1222 ****        21.5000  44.2500  54.7500 Du        
   1223 ****        21.5000  44.2500  55.0000 Du        
   1224 ****        21.5000  44.2500  55.2500 Du        
   1225 ****        21.5000  44.2500  55.5000 Du        
   1226 ****        21.5000  44.2500  55.7500 Du        
   1227 ****        21.5000  44.2500  56.0000 Du        
   1228 ****        21.5000  44.2500  56.2500 Du        
   1229 ****        21.5000  44.2500  56.5000 Du        
   1230 ****        21.5000  44.2500  56.7500 Du        
   1231 ****        21.5000  44.2500  57.0000 Du        
   1232 ****        21.5000  44.5000  54.2500 Du        
   1233 ****        21.5000  44.5000  54.5000 Du        
   1234 ****        21.5000  44.5000  54.7500 Du        
   1235 ****        21.5000  44.5000  55.0000 Du        
   1236 ****        21.5000  44.5000  55.2500 Du        
   1237 ****        21.5000  44.5000  55.5000 Du        
   1238 ****        21.5000  44.5000  55.7500 Du        
   1239 ****        21.5000  44.5000  56.0000 Du        
   1240 ****        21.5000  44.5000  56.2500 Du        
   1241 ****        21.5000  44.7500  54.2500 Du        
   1242 ****        21.5000  44.7500  54.5000 Du        
   1243 ****        21.5000  44.7500  54.7500 Du        
   1244 ****        21.5000  44.7500  55.0000 Du        
   1245 ****        21.5000  44.7500  55.2500 Du        
   1246 ****        21.5000  44.7500  55.5000 Du        
   1247 ****        21.5000  44.7500  55.7500 Du        
   1248 ****        21.5000  44.7500  56.0000 Du        
   1249 ****        21.5000  44.7500  56.2500 Du        
   1250 ****        21.5000  45.0000  54.2500 Du        
   1251 ****        21.5000  45.0000  54.5000 Du        
   1252 ****        21.5000  45.0000  54.7500 Du        
   1253 ****        21.5000  45.0000  55.0000 Du        
   1254 ****        21.5000  45.0000  55.2500 Du        
   1255 ****        21.5000  45.0000  55.5000 Du        
   1256 ****        21.5000  45.0000  55.7500 Du        
   1257 ****        21.5000  45.0000  56.0000 Du        
   1258 ****        21.5000  45.2500  54.2500 Du        
   1259 ****        21.5000  45.2500  54.5000 Du        
   1260 ****        21.5000  45.2500  54.7500 Du        
   1261 ****        21.5000  45.2500  55.0000 Du        
   1262 ****        21.5000  45.2500  55.2500 Du        
   1263 ****        21.5000  45.2500  55.5000 Du        
   1264 ****        21.5000  45.5000  54.2500 Du        
   1265 ****        21.5000  45.5000  54.5000 Du        
   1266 ****        21.5000  45.5000  54.7500 Du        
   1267 ****        21.5000  45.5000  55.0000 Du        
   1268 ****        21.5000  45.5000  55.2500 Du        
   1269 ****        21.5000  45.7500  54.5000 Du        
   1270 ****        21.5000  45.7500  54.7500 Du        
   1271 ****        21.5000  45.7500  55.0000 Du        
   1272 ****        21.7500  20.0000  63.2500 Du        
   1273 ****        21.7500  33.5000  58.5000 Du        
   1274 ****        21.7500  33.5000  58.7500 Du        
   1275 ****        21.7500  33.5000  59.0000 Du        
   1276 ****        21.7500  33.5000  59.2500 Du        
   1277 ****        21.7500  33.7500  58.2500 Du        
   1278 ****        21.7500  33.7500  58.5000 Du        
   1279 ****        21.7500  33.7500  58.7500 Du        
   1280 ****        21.7500  33.7500  59.0000 Du        
   1281 ****        21.7500  33.7500  59.2500 Du        
   1282 ****        21.7500  33.7500  59.5000 Du        
   1283 ****        21.7500  33.7500  59.7500 Du        
   1284 ****        21.7500  33.7500  60.0000 Du        
   1285 ****        21.7500  33.7500  60.2500 Du        
   1286 ****        21.7500  34.0000  58.2500 Du        
   1287 ****        21.7500  34.0000  58.5000 Du        
   1288 ****        21.7500  34.0000  58.7500 Du        
   1289 ****        21.7500  34.0000  59.0000 Du        
   1290 ****        21.7500  34.0000  59.2500 Du        
   1291 ****        21.7500  34.0000  59.5000 Du        
   1292 ****        21.7500  34.0000  59.7500 Du        
   1293 ****        21.7500  34.0000  60.0000 Du        
   1294 ****        21.7500  34.0000  60.2500 Du        
   1295 ****        21.7500  34.2500  58.2500 Du        
   1296 ****        21.7500  34.2500  58.5000 Du        
   1297 ****        21.7500  34.2500  58.7500 Du        
   1298 ****        21.7500  34.2500  59.0000 Du        
   1299 ****        21.7500  34.2500  59.2500 Du        
   1300 ****        21.7500  34.2500  59.5000 Du        
   1301 ****        21.7500  34.2500  59.7500 Du        
   1302 ****        21.7500  34.2500  60.0000 Du        
   1303 ****        21.7500  34.2500  60.2500 Du        
   1304 ****        21.7500  34.5000  58.5000 Du        
   1305 ****        21.7500  34.5000  58.7500 Du        
   1306 ****        21.7500  34.5000  59.0000 Du        
   1307 ****        21.7500  34.5000  59.2500 Du        
   1308 ****        21.7500  34.5000  59.5000 Du        
   1309 ****        21.7500  34.5000  59.7500 Du        
   1310 ****        21.7500  34.5000  60.0000 Du        
   1311 ****        21.7500  34.7500  58.5000 Du        
   1312 ****        21.7500  34.7500  58.7500 Du        
   1313 ****        21.7500  34.7500  59.0000 Du        
   1314 ****        21.7500  34.7500  59.2500 Du        
   1315 ****        21.7500  34.7500  59.5000 Du        
   1316 ****        21.7500  34.7500  59.7500 Du        
   1317 ****        21.7500  34.7500  60.0000 Du        
   1318 ****        21.7500  35.0000  58.5000 Du        
   1319 ****        21.7500  35.0000  58.7500 Du        
   1320 ****        21.7500  35.0000  59.0000 Du        
   1321 ****        21.7500  35.0000  59.2500 Du        
   1322 ****        21.7500  35.0000  59.5000 Du        
   1323 ****        21.7500  35.0000  59.7500 Du        
   1324 ****        21.7500  35.0000  60.0000 Du        
   1325 ****        21.7500  35.2500  58.5000 Du        
   1326 ****        21.7500  35.2500  58.7500 Du        
   1327 ****        21.7500  35.2500  59.0000 Du        
   1328 ****        21.7500  35.2500  59.2500 Du        
   1329 ****        21.7500  35.2500  59.5000 Du        
   1330 ****        21.7500  35.2500  59.7500 Du        
   1331 ****        21.7500  35.5000  58.7500 Du        
   1332 ****        21.7500  35.5000  59.0000 Du        
   1333 ****        21.7500  35.5000  59.2500 Du        
   1334 ****        21.7500  35.5000  59.5000 Du        
   1335 ****        21.7500  35.7500  58.5000 Du        
   1336 ****        21.7500  35.7500  58.7500 Du        
   1337 ****        21.7500  35.7500  59.0000 Du        
   1338 ****        21.7500  35.7500  59.2500 Du        
   1339 ****        21.7500  35.7500  59.5000 Du        
   1340 ****        21.7500  36.0000  58.5000 Du        
   1341 ****        21.7500  36.0000  58.7500 Du        
   1342 ****        21.7500  36.0000  59.0000 Du        
   1343 ****        21.7500  36.0000  59.2500 Du        
   1344 ****        21.7500  36.0000  59.5000 Du        
   1345 ****        21.7500  36.2500  58.2500 Du        
   1346 ****        21.7500  36.2500  58.5000 Du        
   1347 ****        21.7500  36.2500  58.7500 Du        
   1348 ****        21.7500  36.2500  59.0000 Du        
   1349 ****        21.7500  36.2500  59.2500 Du        
   1350 ****        21.7500  36.2500  59.5000 Du        
   1351 ****        21.7500  36.5000  58.2500 Du        
   1352 ****        21.7500  36.5000  58.5000 Du        
   1353 ****        21.7500  36.5000  58.7500 Du        
   1354 ****        21.7500  36.5000  59.0000 Du        
   1355 ****        21.7500  36.5000  59.2500 Du        
   1356 ****        21.7500  36.7500  58.0000 Du        
   1357 ****        21.7500  36.7500  58.2500 Du        
   1358 ****        21.7500  36.7500  58.5000 Du        
   1359 ****        21.7500  36.7500  58.7500 Du        
   1360 ****        21.7500  36.7500  59.0000 Du        
   1361 ****        21.7500  36.7500  59.2500 Du        
   1362 ****        21.7500  37.0000  58.0000 Du        
   1363 ****        21.7500  37.0000  58.2500 Du        
   1364 ****        21.7500  37.0000  58.5000 Du        
   1365 ****        21.7500  37.0000  58.7500 Du        
   1366 ****        21.7500  37.0000  59.0000 Du        
   1367 ****        21.7500  37.2500  58.0000 Du        
   1368 ****        21.7500  37.2500  58.2500 Du        
   1369 ****        21.7500  43.2500  56.7500 Du        
   1370 ****        21.7500  43.2500  57.0000 Du        
   1371 ****        21.7500  43.2500  57.2500 Du        
   1372 ****        21.7500  43.5000  56.2500 Du        
   1373 ****        21.7500  43.5000  56.7500 Du        
   1374 ****        21.7500  43.5000  57.0000 Du        
   1375 ****        21.7500  43.5000  57.2500 Du        
   1376 ****        21.7500  43.7500  55.7500 Du        
   1377 ****        21.7500  43.7500  56.0000 Du        
   1378 ****        21.7500  43.7500  56.2500 Du        
   1379 ****        21.7500  43.7500  56.5000 Du        
   1380 ****        21.7500  43.7500  56.7500 Du        
   1381 ****        21.7500  43.7500  57.0000 Du        
   1382 ****        21.7500  43.7500  57.2500 Du        
   1383 ****        21.7500  44.0000  54.5000 Du        
   1384 ****        21.7500  44.0000  54.7500 Du        
   1385 ****        21.7500  44.0000  55.0000 Du        
   1386 ****        21.7500  44.0000  55.2500 Du        
   1387 ****        21.7500  44.0000  55.5000 Du        
   1388 ****        21.7500  44.0000  55.7500 Du        
   1389 ****        21.7500  44.0000  56.0000 Du        
   1390 ****        21.7500  44.0000  56.2500 Du        
   1391 ****        21.7500  44.0000  56.5000 Du        
   1392 ****        21.7500  44.0000  56.7500 Du        
   1393 ****        21.7500  44.0000  57.0000 Du        
   1394 ****        21.7500  44.0000  57.2500 Du        
   1395 ****        21.7500  44.2500  54.2500 Du        
   1396 ****        21.7500  44.2500  54.5000 Du        
   1397 ****        21.7500  44.2500  54.7500 Du        
   1398 ****        21.7500  44.2500  55.0000 Du        
   1399 ****        21.7500  44.2500  55.2500 Du        
   1400 ****        21.7500  44.2500  55.5000 Du        
   1401 ****        21.7500  44.2500  55.7500 Du        
   1402 ****        21.7500  44.2500  56.0000 Du        
   1403 ****        21.7500  44.2500  56.2500 Du        
   1404 ****        21.7500  44.2500  56.5000 Du        
   1405 ****        21.7500  44.2500  56.7500 Du        
   1406 ****        21.7500  44.2500  57.0000 Du        
   1407 ****        21.7500  44.2500  57.2500 Du        
   1408 ****        21.7500  44.5000  54.2500 Du        
   1409 ****        21.7500  44.5000  54.5000 Du        
   1410 ****        21.7500  44.5000  54.7500 Du        
   1411 ****        21.7500  44.5000  55.0000 Du        
   1412 ****        21.7500  44.5000  55.2500 Du        
   1413 ****        21.7500  44.5000  55.5000 Du        
   1414 ****        21.7500  44.5000  55.7500 Du        
   1415 ****        21.7500  44.5000  56.0000 Du        
   1416 ****        21.7500  44.5000  56.2500 Du        
   1417 ****        21.7500  44.5000  56.5000 Du        
   1418 ****        21.7500  44.7500  54.0000 Du        
   1419 ****        21.7500  44.7500  54.2500 Du        
   1420 ****        21.7500  44.7500  54.5000 Du        
   1421 ****        21.7500  44.7500  54.7500 Du        
   1422 ****        21.7500  44.7500  55.0000 Du        
   1423 ****        21.7500  44.7500  55.2500 Du        
   1424 ****        21.7500  44.7500  55.5000 Du        
   1425 ****        21.7500  44.7500  55.7500 Du        
   1426 ****        21.7500  44.7500  56.0000 Du        
   1427 ****        21.7500  44.7500  56.2500 Du        
   1428 ****        21.7500  44.7500  56.5000 Du        
   1429 ****        21.7500  45.0000  54.0000 Du        
   1430 ****        21.7500  45.0000  54.2500 Du        
   1431 ****        21.7500  45.0000  54.5000 Du        
   1432 ****        21.7500  45.0000  54.7500 Du        
   1433 ****        21.7500  45.0000  55.0000 Du        
   1434 ****        21.7500  45.0000  55.2500 Du        
   1435 ****        21.7500  45.0000  55.5000 Du        
   1436 ****        21.7500  45.0000  55.7500 Du        
   1437 ****        21.7500  45.0000  56.0000 Du        
   1438 ****        21.7500  45.0000  56.2500 Du        
   1439 ****        21.7500  45.2500  54.2500 Du        
   1440 ****        21.7500  45.2500  54.5000 Du        
   1441 ****        21.7500  45.2500  54.7500 Du        
   1442 ****        21.7500  45.2500  55.0000 Du        
   1443 ****        21.7500  45.2500  55.2500 Du        
   1444 ****        21.7500  45.2500  55.5000 Du        
   1445 ****        21.7500  45.2500  55.7500 Du        
   1446 ****        21.7500  45.2500  56.0000 Du        
   1447 ****        21.7500  45.2500  56.2500 Du        
   1448 ****        21.7500  45.5000  54.2500 Du        
   1449 ****        21.7500  45.5000  54.5000 Du        
   1450 ****        21.7500  45.5000  54.7500 Du        
   1451 ****        21.7500  45.5000  55.0000 Du        
   1452 ****        21.7500  45.5000  55.2500 Du        
   1453 ****        21.7500  45.7500  54.2500 Du        
   1454 ****        21.7500  45.7500  54.5000 Du        
   1455 ****        21.7500  45.7500  54.7500 Du        
   1456 ****        21.7500  45.7500  55.0000 Du        
   1457 ****        21.7500  45.7500  55.2500 Du        
   1458 ****        21.7500  46.0000  54.7500 Du        
   1459 ****        22.0000  19.2500  62.5000 Du        
   1460 ****        22.0000  19.2500  62.7500 Du        
   1461 ****        22.0000  19.5000  62.5000 Du        
   1462 ****        22.0000  19.5000  62.7500 Du        
   1463 ****        22.0000  19.5000  63.0000 Du        
   1464 ****        22.0000  19.5000  63.2500 Du        
   1465 ****        22.0000  19.7500  62.5000 Du        
   1466 ****        22.0000  19.7500  62.7500 Du        
   1467 ****        22.0000  19.7500  63.0000 Du        
   1468 ****        22.0000  19.7500  63.2500 Du        
   1469 ****        22.0000  19.7500  63.5000 Du        
   1470 ****        22.0000  19.7500  63.7500 Du        
   1471 ****        22.0000  20.0000  62.7500 Du        
   1472 ****        22.0000  20.0000  63.0000 Du        
   1473 ****        22.0000  20.0000  63.2500 Du        
   1474 ****        22.0000  20.0000  63.5000 Du        
   1475 ****        22.0000  20.0000  63.7500 Du        
   1476 ****        22.0000  20.2500  62.7500 Du        
   1477 ****        22.0000  20.2500  63.0000 Du        
   1478 ****        22.0000  20.2500  63.2500 Du        
   1479 ****        22.0000  20.2500  63.5000 Du        
   1480 ****        22.0000  20.2500  63.7500 Du        
   1481 ****        22.0000  20.2500  64.0000 Du        
   1482 ****        22.0000  20.5000  62.7500 Du        
   1483 ****        22.0000  20.5000  63.0000 Du        
   1484 ****        22.0000  20.5000  63.2500 Du        
   1485 ****        22.0000  20.5000  63.5000 Du        
   1486 ****        22.0000  20.5000  63.7500 Du        
   1487 ****        22.0000  20.7500  63.0000 Du        
   1488 ****        22.0000  20.7500  63.2500 Du        
   1489 ****        22.0000  20.7500  63.5000 Du        
   1490 ****        22.0000  20.7500  63.7500 Du        
   1491 ****        22.0000  21.0000  63.0000 Du        
   1492 ****        22.0000  21.0000  63.2500 Du        
   1493 ****        22.0000  21.0000  63.5000 Du        
   1494 ****        22.0000  22.2500  62.5000 Du        
   1495 ****        22.0000  22.2500  62.7500 Du        
   1496 ****        22.0000  22.2500  63.0000 Du        
   1497 ****        22.0000  22.5000  62.2500 Du        
   1498 ****        22.0000  22.5000  62.5000 Du        
   1499 ****        22.0000  22.5000  62.7500 Du        
   1500 ****        22.0000  22.5000  63.0000 Du        
   1501 ****        22.0000  22.7500  62.0000 Du        
   1502 ****        22.0000  22.7500  62.2500 Du        
   1503 ****        22.0000  22.7500  62.5000 Du        
   1504 ****        22.0000  22.7500  62.7500 Du        
   1505 ****        22.0000  23.0000  61.7500 Du        
   1506 ****        22.0000  23.0000  62.0000 Du        
   1507 ****        22.0000  23.0000  62.2500 Du        
   1508 ****        22.0000  23.0000  62.5000 Du        
   1509 ****        22.0000  23.0000  62.7500 Du        
   1510 ****        22.0000  23.2500  62.0000 Du        
   1511 ****        22.0000  23.2500  62.2500 Du        
   1512 ****        22.0000  23.2500  62.5000 Du        
   1513 ****        22.0000  33.5000  58.2500 Du        
   1514 ****        22.0000  33.5000  58.5000 Du        
   1515 ****        22.0000  33.5000  58.7500 Du        
   1516 ****        22.0000  33.5000  59.0000 Du        
   1517 ****        22.0000  33.5000  59.2500 Du        
   1518 ****        22.0000  33.5000  59.5000 Du        
   1519 ****        22.0000  33.5000  59.7500 Du        
   1520 ****        22.0000  33.5000  60.0000 Du        
   1521 ****        22.0000  33.7500  58.2500 Du        
   1522 ****        22.0000  33.7500  58.5000 Du        
   1523 ****        22.0000  33.7500  58.7500 Du        
   1524 ****        22.0000  33.7500  59.0000 Du        
   1525 ****        22.0000  33.7500  59.2500 Du        
   1526 ****        22.0000  33.7500  59.5000 Du        
   1527 ****        22.0000  33.7500  59.7500 Du        
   1528 ****        22.0000  33.7500  60.0000 Du        
   1529 ****        22.0000  33.7500  60.2500 Du        
   1530 ****        22.0000  34.0000  58.5000 Du        
   1531 ****        22.0000  34.0000  58.7500 Du        
   1532 ****        22.0000  34.0000  59.0000 Du        
   1533 ****        22.0000  34.0000  59.2500 Du        
   1534 ****        22.0000  34.0000  59.5000 Du        
   1535 ****        22.0000  34.0000  59.7500 Du        
   1536 ****        22.0000  34.0000  60.0000 Du        
   1537 ****        22.0000  34.0000  60.2500 Du        
   1538 ****        22.0000  34.2500  58.5000 Du        
   1539 ****        22.0000  34.2500  58.7500 Du        
   1540 ****        22.0000  34.2500  59.0000 Du        
   1541 ****        22.0000  34.2500  59.2500 Du        
   1542 ****        22.0000  34.2500  59.5000 Du        
   1543 ****        22.0000  34.2500  59.7500 Du        
   1544 ****        22.0000  34.2500  60.0000 Du        
   1545 ****        22.0000  34.2500  60.2500 Du        
   1546 ****        22.0000  34.5000  58.7500 Du        
   1547 ****        22.0000  34.5000  59.0000 Du        
   1548 ****        22.0000  34.5000  59.2500 Du        
   1549 ****        22.0000  34.5000  59.5000 Du        
   1550 ****        22.0000  34.5000  59.7500 Du        
   1551 ****        22.0000  34.5000  60.0000 Du        
   1552 ****        22.0000  34.7500  58.7500 Du        
   1553 ****        22.0000  34.7500  59.0000 Du        
   1554 ****        22.0000  34.7500  59.2500 Du        
   1555 ****        22.0000  34.7500  59.5000 Du        
   1556 ****        22.0000  34.7500  59.7500 Du        
   1557 ****        22.0000  34.7500  60.0000 Du        
   1558 ****        22.0000  35.0000  58.7500 Du        
   1559 ****        22.0000  35.0000  59.0000 Du        
   1560 ****        22.0000  35.0000  59.2500 Du        
   1561 ****        22.0000  35.0000  59.5000 Du        
   1562 ****        22.0000  35.0000  59.7500 Du        
   1563 ****        22.0000  35.2500  58.7500 Du        
   1564 ****        22.0000  35.2500  59.0000 Du        
   1565 ****        22.0000  35.2500  59.2500 Du        
   1566 ****        22.0000  35.2500  59.5000 Du        
   1567 ****        22.0000  35.2500  59.7500 Du        
   1568 ****        22.0000  35.5000  58.7500 Du        
   1569 ****        22.0000  35.5000  59.0000 Du        
   1570 ****        22.0000  35.5000  59.2500 Du        
   1571 ****        22.0000  35.5000  59.5000 Du        
   1572 ****        22.0000  35.7500  58.7500 Du        
   1573 ****        22.0000  35.7500  59.0000 Du        
   1574 ****        22.0000  35.7500  59.2500 Du        
   1575 ****        22.0000  36.0000  58.7500 Du        
   1576 ****        22.0000  36.0000  59.0000 Du        
   1577 ****        22.0000  36.0000  59.2500 Du        
   1578 ****        22.0000  36.2500  58.7500 Du        
   1579 ****        22.0000  36.2500  59.0000 Du        
   1580 ****        22.0000  36.2500  59.2500 Du        
   1581 ****        22.0000  43.5000  57.0000 Du        
   1582 ****        22.0000  43.5000  57.2500 Du        
   1583 ****        22.0000  43.7500  56.0000 Du        
   1584 ****        22.0000  43.7500  56.2500 Du        
   1585 ****        22.0000  43.7500  56.5000 Du        
   1586 ****        22.0000  43.7500  56.7500 Du        
   1587 ****        22.0000  43.7500  57.0000 Du        
   1588 ****        22.0000  43.7500  57.2500 Du        
   1589 ****        22.0000  44.0000  54.5000 Du        
   1590 ****        22.0000  44.0000  54.7500 Du        
   1591 ****        22.0000  44.0000  55.0000 Du        
   1592 ****        22.0000  44.0000  55.2500 Du        
   1593 ****        22.0000  44.0000  55.5000 Du        
   1594 ****        22.0000  44.0000  55.7500 Du        
   1595 ****        22.0000  44.0000  56.0000 Du        
   1596 ****        22.0000  44.0000  56.2500 Du        
   1597 ****        22.0000  44.0000  56.5000 Du        
   1598 ****        22.0000  44.0000  56.7500 Du        
   1599 ****        22.0000  44.0000  57.0000 Du        
   1600 ****        22.0000  44.0000  57.2500 Du        
   1601 ****        22.0000  44.0000  57.5000 Du        
   1602 ****        22.0000  44.0000  57.7500 Du        
   1603 ****        22.0000  44.2500  54.2500 Du        
   1604 ****        22.0000  44.2500  54.5000 Du        
   1605 ****        22.0000  44.2500  54.7500 Du        
   1606 ****        22.0000  44.2500  55.0000 Du        
   1607 ****        22.0000  44.2500  55.2500 Du        
   1608 ****        22.0000  44.2500  55.5000 Du        
   1609 ****        22.0000  44.2500  55.7500 Du        
   1610 ****        22.0000  44.2500  56.0000 Du        
   1611 ****        22.0000  44.2500  56.2500 Du        
   1612 ****        22.0000  44.2500  56.5000 Du        
   1613 ****        22.0000  44.2500  56.7500 Du        
   1614 ****        22.0000  44.2500  57.0000 Du        
   1615 ****        22.0000  44.2500  57.2500 Du        
   1616 ****        22.0000  44.2500  57.5000 Du        
   1617 ****        22.0000  44.2500  57.7500 Du        
   1618 ****        22.0000  44.5000  54.2500 Du        
   1619 ****        22.0000  44.5000  54.5000 Du        
   1620 ****        22.0000  44.5000  54.7500 Du        
   1621 ****        22.0000  44.5000  55.0000 Du        
   1622 ****        22.0000  44.5000  55.2500 Du        
   1623 ****        22.0000  44.5000  55.5000 Du        
   1624 ****        22.0000  44.5000  55.7500 Du        
   1625 ****        22.0000  44.5000  56.0000 Du        
   1626 ****        22.0000  44.5000  56.2500 Du        
   1627 ****        22.0000  44.5000  56.5000 Du        
   1628 ****        22.0000  44.5000  56.7500 Du        
   1629 ****        22.0000  44.5000  57.0000 Du        
   1630 ****        22.0000  44.5000  57.2500 Du        
   1631 ****        22.0000  44.7500  54.0000 Du        
   1632 ****        22.0000  44.7500  54.2500 Du        
   1633 ****        22.0000  44.7500  54.5000 Du        
   1634 ****        22.0000  44.7500  54.7500 Du        
   1635 ****        22.0000  44.7500  55.0000 Du        
   1636 ****        22.0000  44.7500  55.2500 Du        
   1637 ****        22.0000  44.7500  55.5000 Du        
   1638 ****        22.0000  44.7500  55.7500 Du        
   1639 ****        22.0000  44.7500  56.0000 Du        
   1640 ****        22.0000  44.7500  56.2500 Du        
   1641 ****        22.0000  44.7500  56.5000 Du        
   1642 ****        22.0000  44.7500  56.7500 Du        
   1643 ****        22.0000  44.7500  57.0000 Du        
   1644 ****        22.0000  44.7500  57.2500 Du        
   1645 ****        22.0000  45.0000  54.0000 Du        
   1646 ****        22.0000  45.0000  54.2500 Du        
   1647 ****        22.0000  45.0000  54.5000 Du        
   1648 ****        22.0000  45.0000  54.7500 Du        
   1649 ****        22.0000  45.0000  55.0000 Du        
   1650 ****        22.0000  45.0000  55.2500 Du        
   1651 ****        22.0000  45.0000  55.5000 Du        
   1652 ****        22.0000  45.0000  55.7500 Du        
   1653 ****        22.0000  45.0000  56.0000 Du        
   1654 ****        22.0000  45.0000  56.2500 Du        
   1655 ****        22.0000  45.0000  56.5000 Du        
   1656 ****        22.0000  45.0000  56.7500 Du        
   1657 ****        22.0000  45.0000  57.0000 Du        
   1658 ****        22.0000  45.2500  54.2500 Du        
   1659 ****        22.0000  45.2500  54.5000 Du        
   1660 ****        22.0000  45.2500  54.7500 Du        
   1661 ****        22.0000  45.2500  55.0000 Du        
   1662 ****        22.0000  45.2500  55.2500 Du        
   1663 ****        22.0000  45.2500  55.5000 Du        
   1664 ****        22.0000  45.2500  55.7500 Du        
   1665 ****        22.0000  45.2500  56.0000 Du        
   1666 ****        22.0000  45.2500  56.2500 Du        
   1667 ****        22.0000  45.2500  56.5000 Du        
   1668 ****        22.0000  45.5000  54.2500 Du        
   1669 ****        22.0000  45.5000  54.5000 Du        
   1670 ****        22.0000  45.5000  54.7500 Du        
   1671 ****        22.0000  45.5000  55.0000 Du        
   1672 ****        22.0000  45.5000  55.2500 Du        
   1673 ****        22.0000  45.5000  55.5000 Du        
   1674 ****        22.0000  45.5000  55.7500 Du        
   1675 ****        22.0000  45.5000  56.0000 Du        
   1676 ****        22.0000  45.7500  54.5000 Du        
   1677 ****        22.0000  45.7500  54.7500 Du        
   1678 ****        22.0000  45.7500  55.0000 Du        
   1679 ****        22.0000  45.7500  55.2500 Du        
   1680 ****        22.0000  45.7500  55.5000 Du        
   1681 ****        22.0000  45.7500  55.7500 Du        
   1682 ****        22.0000  46.0000  54.5000 Du        
   1683 ****        22.0000  46.0000  54.7500 Du        
   1684 ****        22.0000  46.0000  55.0000 Du        
   1685 ****        22.0000  46.0000  55.2500 Du        
   1686 ****        22.2500  18.7500  62.0000 Du        
   1687 ****        22.2500  18.7500  62.2500 Du        
   1688 ****        22.2500  19.0000  62.0000 Du        
   1689 ****        22.2500  19.0000  62.2500 Du        
   1690 ****        22.2500  19.0000  62.5000 Du        
   1691 ****        22.2500  19.0000  62.7500 Du        
   1692 ****        22.2500  19.2500  62.2500 Du        
   1693 ****        22.2500  19.2500  62.5000 Du        
   1694 ****        22.2500  19.2500  62.7500 Du        
   1695 ****        22.2500  19.2500  63.0000 Du        
   1696 ****        22.2500  19.2500  63.2500 Du        
   1697 ****        22.2500  19.2500  63.5000 Du        
   1698 ****        22.2500  19.5000  62.2500 Du        
   1699 ****        22.2500  19.5000  62.5000 Du        
   1700 ****        22.2500  19.5000  62.7500 Du        
   1701 ****        22.2500  19.5000  63.0000 Du        
   1702 ****        22.2500  19.5000  63.2500 Du        
   1703 ****        22.2500  19.5000  63.5000 Du        
   1704 ****        22.2500  19.5000  63.7500 Du        
   1705 ****        22.2500  19.7500  62.5000 Du        
   1706 ****        22.2500  19.7500  62.7500 Du        
   1707 ****        22.2500  19.7500  63.0000 Du        
   1708 ****        22.2500  19.7500  63.2500 Du        
   1709 ****        22.2500  19.7500  63.5000 Du        
   1710 ****        22.2500  19.7500  63.7500 Du        
   1711 ****        22.2500  19.7500  64.0000 Du        
   1712 ****        22.2500  20.0000  62.5000 Du        
   1713 ****        22.2500  20.0000  62.7500 Du        
   1714 ****        22.2500  20.0000  63.0000 Du        
   1715 ****        22.2500  20.0000  63.2500 Du        
   1716 ****        22.2500  20.0000  63.5000 Du        
   1717 ****        22.2500  20.0000  63.7500 Du        
   1718 ****        22.2500  20.0000  64.0000 Du        
   1719 ****        22.2500  20.2500  62.5000 Du        
   1720 ****        22.2500  20.2500  62.7500 Du        
   1721 ****        22.2500  20.2500  63.0000 Du        
   1722 ****        22.2500  20.2500  63.2500 Du        
   1723 ****        22.2500  20.2500  63.5000 Du        
   1724 ****        22.2500  20.2500  63.7500 Du        
   1725 ****        22.2500  20.2500  64.0000 Du        
   1726 ****        22.2500  20.5000  62.7500 Du        
   1727 ****        22.2500  20.5000  63.0000 Du        
   1728 ****        22.2500  20.5000  63.2500 Du        
   1729 ****        22.2500  20.5000  63.5000 Du        
   1730 ****        22.2500  20.5000  63.7500 Du        
   1731 ****        22.2500  20.5000  64.0000 Du        
   1732 ****        22.2500  20.7500  62.7500 Du        
   1733 ****        22.2500  20.7500  63.0000 Du        
   1734 ****        22.2500  20.7500  63.2500 Du        
   1735 ****        22.2500  20.7500  63.5000 Du        
   1736 ****        22.2500  20.7500  63.7500 Du        
   1737 ****        22.2500  20.7500  64.0000 Du        
   1738 ****        22.2500  21.0000  62.7500 Du        
   1739 ****        22.2500  21.0000  63.0000 Du        
   1740 ****        22.2500  21.0000  63.2500 Du        
   1741 ****        22.2500  21.0000  63.5000 Du        
   1742 ****        22.2500  21.0000  63.7500 Du        
   1743 ****        22.2500  21.2500  62.7500 Du        
   1744 ****        22.2500  21.2500  63.0000 Du        
   1745 ****        22.2500  21.2500  63.2500 Du        
   1746 ****        22.2500  21.2500  63.5000 Du        
   1747 ****        22.2500  21.2500  63.7500 Du        
   1748 ****        22.2500  21.5000  62.7500 Du        
   1749 ****        22.2500  21.5000  63.0000 Du        
   1750 ****        22.2500  21.5000  63.2500 Du        
   1751 ****        22.2500  21.5000  63.5000 Du        
   1752 ****        22.2500  21.7500  62.5000 Du        
   1753 ****        22.2500  21.7500  62.7500 Du        
   1754 ****        22.2500  21.7500  63.0000 Du        
   1755 ****        22.2500  21.7500  63.2500 Du        
   1756 ****        22.2500  22.0000  62.2500 Du        
   1757 ****        22.2500  22.0000  62.5000 Du        
   1758 ****        22.2500  22.0000  62.7500 Du        
   1759 ****        22.2500  22.0000  63.0000 Du        
   1760 ****        22.2500  22.0000  63.2500 Du        
   1761 ****        22.2500  22.2500  62.2500 Du        
   1762 ****        22.2500  22.2500  62.5000 Du        
   1763 ****        22.2500  22.2500  62.7500 Du        
   1764 ****        22.2500  22.2500  63.0000 Du        
   1765 ****        22.2500  22.2500  63.2500 Du        
   1766 ****        22.2500  22.5000  62.0000 Du        
   1767 ****        22.2500  22.5000  62.2500 Du        
   1768 ****        22.2500  22.5000  62.5000 Du        
   1769 ****        22.2500  22.5000  62.7500 Du        
   1770 ****        22.2500  22.5000  63.0000 Du        
   1771 ****        22.2500  22.7500  61.7500 Du        
   1772 ****        22.2500  22.7500  62.0000 Du        
   1773 ****        22.2500  22.7500  62.2500 Du        
   1774 ****        22.2500  22.7500  62.5000 Du        
   1775 ****        22.2500  22.7500  62.7500 Du        
   1776 ****        22.2500  22.7500  63.0000 Du        
   1777 ****        22.2500  23.0000  61.7500 Du        
   1778 ****        22.2500  23.0000  62.0000 Du        
   1779 ****        22.2500  23.0000  62.2500 Du        
   1780 ****        22.2500  23.0000  62.5000 Du        
   1781 ****        22.2500  23.0000  62.7500 Du        
   1782 ****        22.2500  23.2500  61.7500 Du        
   1783 ****        22.2500  23.2500  62.0000 Du        
   1784 ****        22.2500  23.2500  62.2500 Du        
   1785 ****        22.2500  23.2500  62.5000 Du        
   1786 ****        22.2500  23.5000  62.2500 Du        
   1787 ****        22.2500  33.2500  58.5000 Du        
   1788 ****        22.2500  33.2500  58.7500 Du        
   1789 ****        22.2500  33.2500  59.0000 Du        
   1790 ****        22.2500  33.2500  59.2500 Du        
   1791 ****        22.2500  33.2500  59.7500 Du        
   1792 ****        22.2500  33.5000  58.2500 Du        
   1793 ****        22.2500  33.5000  58.5000 Du        
   1794 ****        22.2500  33.5000  58.7500 Du        
   1795 ****        22.2500  33.5000  59.0000 Du        
   1796 ****        22.2500  33.5000  59.2500 Du        
   1797 ****        22.2500  33.5000  59.5000 Du        
   1798 ****        22.2500  33.5000  59.7500 Du        
   1799 ****        22.2500  33.5000  60.0000 Du        
   1800 ****        22.2500  33.7500  58.5000 Du        
   1801 ****        22.2500  33.7500  58.7500 Du        
   1802 ****        22.2500  33.7500  59.0000 Du        
   1803 ****        22.2500  33.7500  59.2500 Du        
   1804 ****        22.2500  33.7500  59.5000 Du        
   1805 ****        22.2500  33.7500  59.7500 Du        
   1806 ****        22.2500  33.7500  60.0000 Du        
   1807 ****        22.2500  33.7500  60.2500 Du        
   1808 ****        22.2500  34.0000  58.5000 Du        
   1809 ****        22.2500  34.0000  58.7500 Du        
   1810 ****        22.2500  34.0000  59.0000 Du        
   1811 ****        22.2500  34.0000  59.2500 Du        
   1812 ****        22.2500  34.0000  59.5000 Du        
   1813 ****        22.2500  34.0000  59.7500 Du        
   1814 ****        22.2500  34.0000  60.0000 Du        
   1815 ****        22.2500  34.0000  60.2500 Du        
   1816 ****        22.2500  34.2500  58.7500 Du        
   1817 ****        22.2500  34.2500  59.0000 Du        
   1818 ****        22.2500  34.2500  59.2500 Du        
   1819 ****        22.2500  34.2500  59.5000 Du        
   1820 ****        22.2500  34.2500  59.7500 Du        
   1821 ****        22.2500  34.2500  60.0000 Du        
   1822 ****        22.2500  34.2500  60.2500 Du        
   1823 ****        22.2500  34.5000  58.7500 Du        
   1824 ****        22.2500  34.5000  59.0000 Du        
   1825 ****        22.2500  34.5000  59.2500 Du        
   1826 ****        22.2500  34.5000  59.5000 Du        
   1827 ****        22.2500  34.5000  59.7500 Du        
   1828 ****        22.2500  34.5000  60.0000 Du        
   1829 ****        22.2500  34.7500  58.7500 Du        
   1830 ****        22.2500  34.7500  59.0000 Du        
   1831 ****        22.2500  34.7500  59.2500 Du        
   1832 ****        22.2500  34.7500  59.5000 Du        
   1833 ****        22.2500  34.7500  59.7500 Du        
   1834 ****        22.2500  34.7500  60.0000 Du        
   1835 ****        22.2500  35.0000  58.7500 Du        
   1836 ****        22.2500  35.0000  59.0000 Du        
   1837 ****        22.2500  35.0000  59.2500 Du        
   1838 ****        22.2500  35.0000  59.5000 Du        
   1839 ****        22.2500  35.0000  59.7500 Du        
   1840 ****        22.2500  35.2500  59.0000 Du        
   1841 ****        22.2500  35.2500  59.2500 Du        
   1842 ****        22.2500  35.2500  59.5000 Du        
   1843 ****        22.2500  35.5000  59.0000 Du        
   1844 ****        22.2500  35.5000  59.2500 Du        
   1845 ****        22.2500  35.7500  59.2500 Du        
   1846 ****        22.2500  43.7500  57.0000 Du        
   1847 ****        22.2500  43.7500  57.2500 Du        
   1848 ****        22.2500  44.0000  55.7500 Du        
   1849 ****        22.2500  44.0000  56.0000 Du        
   1850 ****        22.2500  44.0000  56.2500 Du        
   1851 ****        22.2500  44.0000  56.5000 Du        
   1852 ****        22.2500  44.0000  56.7500 Du        
   1853 ****        22.2500  44.0000  57.0000 Du        
   1854 ****        22.2500  44.0000  57.2500 Du        
   1855 ****        22.2500  44.0000  57.5000 Du        
   1856 ****        22.2500  44.2500  54.2500 Du        
   1857 ****        22.2500  44.2500  54.5000 Du        
   1858 ****        22.2500  44.2500  54.7500 Du        
   1859 ****        22.2500  44.2500  55.0000 Du        
   1860 ****        22.2500  44.2500  55.2500 Du        
   1861 ****        22.2500  44.2500  55.5000 Du        
   1862 ****        22.2500  44.2500  55.7500 Du        
   1863 ****        22.2500  44.2500  56.0000 Du        
   1864 ****        22.2500  44.2500  56.2500 Du        
   1865 ****        22.2500  44.2500  56.5000 Du        
   1866 ****        22.2500  44.2500  56.7500 Du        
   1867 ****        22.2500  44.2500  57.0000 Du        
   1868 ****        22.2500  44.2500  57.2500 Du        
   1869 ****        22.2500  44.2500  57.5000 Du        
   1870 ****        22.2500  44.2500  57.7500 Du        
   1871 ****        22.2500  44.5000  54.2500 Du        
   1872 ****        22.2500  44.5000  54.5000 Du        
   1873 ****        22.2500  44.5000  54.7500 Du        
   1874 ****        22.2500  44.5000  55.0000 Du        
   1875 ****        22.2500  44.5000  55.2500 Du        
   1876 ****        22.2500  44.5000  55.5000 Du        
   1877 ****        22.2500  44.5000  55.7500 Du        
   1878 ****        22.2500  44.5000  56.0000 Du        
   1879 ****        22.2500  44.5000  56.2500 Du        
   1880 ****        22.2500  44.5000  56.5000 Du        
   1881 ****        22.2500  44.5000  56.7500 Du        
   1882 ****        22.2500  44.5000  57.0000 Du        
   1883 ****        22.2500  44.5000  57.2500 Du        
   1884 ****        22.2500  44.5000  57.5000 Du        
   1885 ****        22.2500  44.7500  54.2500 Du        
   1886 ****        22.2500  44.7500  54.5000 Du        
   1887 ****        22.2500  44.7500  54.7500 Du        
   1888 ****        22.2500  44.7500  55.0000 Du        
   1889 ****        22.2500  44.7500  55.2500 Du        
   1890 ****        22.2500  44.7500  55.5000 Du        
   1891 ****        22.2500  44.7500  55.7500 Du        
   1892 ****        22.2500  44.7500  56.0000 Du        
   1893 ****        22.2500  44.7500  56.2500 Du        
   1894 ****        22.2500  44.7500  56.5000 Du        
   1895 ****        22.2500  44.7500  56.7500 Du        
   1896 ****        22.2500  44.7500  57.0000 Du        
   1897 ****        22.2500  44.7500  57.2500 Du        
   1898 ****        22.2500  45.0000  54.2500 Du        
   1899 ****        22.2500  45.0000  54.5000 Du        
   1900 ****        22.2500  45.0000  54.7500 Du        
   1901 ****        22.2500  45.0000  55.0000 Du        
   1902 ****        22.2500  45.0000  55.2500 Du        
   1903 ****        22.2500  45.0000  55.5000 Du        
   1904 ****        22.2500  45.0000  55.7500 Du        
   1905 ****        22.2500  45.0000  56.0000 Du        
   1906 ****        22.2500  45.0000  56.2500 Du        
   1907 ****        22.2500  45.0000  56.5000 Du        
   1908 ****        22.2500  45.0000  56.7500 Du        
   1909 ****        22.2500  45.0000  57.0000 Du        
   1910 ****        22.2500  45.0000  57.2500 Du        
   1911 ****        22.2500  45.2500  54.2500 Du        
   1912 ****        22.2500  45.2500  54.5000 Du        
   1913 ****        22.2500  45.2500  54.7500 Du        
   1914 ****        22.2500  45.2500  55.0000 Du        
   1915 ****        22.2500  45.2500  55.2500 Du        
   1916 ****        22.2500  45.2500  55.5000 Du        
   1917 ****        22.2500  45.2500  55.7500 Du        
   1918 ****        22.2500  45.2500  56.0000 Du        
   1919 ****        22.2500  45.2500  56.2500 Du        
   1920 ****        22.2500  45.2500  56.5000 Du        
   1921 ****        22.2500  45.2500  56.7500 Du        
   1922 ****        22.2500  45.2500  57.0000 Du        
   1923 ****        22.2500  45.5000  54.5000 Du        
   1924 ****        22.2500  45.5000  54.7500 Du        
   1925 ****        22.2500  45.5000  55.0000 Du        
   1926 ****        22.2500  45.5000  55.2500 Du        
   1927 ****        22.2500  45.5000  55.5000 Du        
   1928 ****        22.2500  45.5000  55.7500 Du        
   1929 ****        22.2500  45.5000  56.0000 Du        
   1930 ****        22.2500  45.5000  56.2500 Du        
   1931 ****        22.2500  45.5000  56.5000 Du        
   1932 ****        22.2500  45.7500  54.5000 Du        
   1933 ****        22.2500  45.7500  54.7500 Du        
   1934 ****        22.2500  45.7500  55.0000 Du        
   1935 ****        22.2500  45.7500  55.2500 Du        
   1936 ****        22.2500  45.7500  55.5000 Du        
   1937 ****        22.2500  45.7500  55.7500 Du        
   1938 ****        22.2500  45.7500  56.0000 Du        
   1939 ****        22.2500  46.0000  54.7500 Du        
   1940 ****        22.2500  46.0000  55.0000 Du        
   1941 ****        22.2500  46.0000  55.2500 Du        
   1942 ****        22.2500  46.0000  55.5000 Du        
   1943 ****        22.2500  46.0000  55.7500 Du        
   1944 ****        22.2500  46.0000  56.0000 Du        
   1945 ****        22.5000  18.5000  62.2500 Du        
   1946 ****        22.5000  18.5000  62.5000 Du        
   1947 ****        22.5000  18.7500  62.0000 Du        
   1948 ****        22.5000  18.7500  62.2500 Du        
   1949 ****        22.5000  18.7500  62.5000 Du        
   1950 ****        22.5000  18.7500  62.7500 Du        
   1951 ****        22.5000  18.7500  63.0000 Du        
   1952 ****        22.5000  19.0000  62.0000 Du        
   1953 ****        22.5000  19.0000  62.2500 Du        
   1954 ****        22.5000  19.0000  62.5000 Du        
   1955 ****        22.5000  19.0000  62.7500 Du        
   1956 ****        22.5000  19.0000  63.0000 Du        
   1957 ****        22.5000  19.0000  63.2500 Du        
   1958 ****        22.5000  19.0000  63.5000 Du        
   1959 ****        22.5000  19.2500  62.0000 Du        
   1960 ****        22.5000  19.2500  62.2500 Du        
   1961 ****        22.5000  19.2500  62.5000 Du        
   1962 ****        22.5000  19.2500  62.7500 Du        
   1963 ****        22.5000  19.2500  63.0000 Du        
   1964 ****        22.5000  19.2500  63.2500 Du        
   1965 ****        22.5000  19.2500  63.5000 Du        
   1966 ****        22.5000  19.2500  63.7500 Du        
   1967 ****        22.5000  19.5000  62.2500 Du        
   1968 ****        22.5000  19.5000  62.5000 Du        
   1969 ****        22.5000  19.5000  62.7500 Du        
   1970 ****        22.5000  19.5000  63.0000 Du        
   1971 ****        22.5000  19.5000  63.2500 Du        
   1972 ****        22.5000  19.5000  63.5000 Du        
   1973 ****        22.5000  19.5000  63.7500 Du        
   1974 ****        22.5000  19.5000  64.0000 Du        
   1975 ****        22.5000  19.7500  62.2500 Du        
   1976 ****        22.5000  19.7500  62.5000 Du        
   1977 ****        22.5000  19.7500  62.7500 Du        
   1978 ****        22.5000  19.7500  63.0000 Du        
   1979 ****        22.5000  19.7500  63.2500 Du        
   1980 ****        22.5000  19.7500  63.5000 Du        
   1981 ****        22.5000  19.7500  63.7500 Du        
   1982 ****        22.5000  19.7500  64.0000 Du        
   1983 ****        22.5000  19.7500  64.2500 Du        
   1984 ****        22.5000  20.0000  62.5000 Du        
   1985 ****        22.5000  20.0000  62.7500 Du        
   1986 ****        22.5000  20.0000  63.0000 Du        
   1987 ****        22.5000  20.0000  63.2500 Du        
   1988 ****        22.5000  20.0000  63.5000 Du        
   1989 ****        22.5000  20.0000  63.7500 Du        
   1990 ****        22.5000  20.0000  64.0000 Du        
   1991 ****        22.5000  20.0000  64.2500 Du        
   1992 ****        22.5000  20.2500  62.5000 Du        
   1993 ****        22.5000  20.2500  62.7500 Du        
   1994 ****        22.5000  20.2500  63.0000 Du        
   1995 ****        22.5000  20.2500  63.2500 Du        
   1996 ****        22.5000  20.2500  63.5000 Du        
   1997 ****        22.5000  20.2500  63.7500 Du        
   1998 ****        22.5000  20.2500  64.0000 Du        
   1999 ****        22.5000  20.2500  64.2500 Du        
   2000 ****        22.5000  20.5000  62.5000 Du        
   2001 ****        22.5000  20.5000  62.7500 Du        
   2002 ****        22.5000  20.5000  63.0000 Du        
   2003 ****        22.5000  20.5000  63.2500 Du        
   2004 ****        22.5000  20.5000  63.5000 Du        
   2005 ****        22.5000  20.5000  63.7500 Du        
   2006 ****        22.5000  20.5000  64.0000 Du        
   2007 ****        22.5000  20.5000  64.2500 Du        
   2008 ****        22.5000  20.7500  62.5000 Du        
   2009 ****        22.5000  20.7500  62.7500 Du        
   2010 ****        22.5000  20.7500  63.0000 Du        
   2011 ****        22.5000  20.7500  63.2500 Du        
   2012 ****        22.5000  20.7500  63.5000 Du        
   2013 ****        22.5000  20.7500  63.7500 Du        
   2014 ****        22.5000  20.7500  64.0000 Du        
   2015 ****        22.5000  21.0000  62.7500 Du        
   2016 ****        22.5000  21.0000  63.0000 Du        
   2017 ****        22.5000  21.0000  63.2500 Du        
   2018 ****        22.5000  21.0000  63.5000 Du        
   2019 ****        22.5000  21.0000  63.7500 Du        
   2020 ****        22.5000  21.0000  64.0000 Du        
   2021 ****        22.5000  21.2500  62.5000 Du        
   2022 ****        22.5000  21.2500  62.7500 Du        
   2023 ****        22.5000  21.2500  63.0000 Du        
   2024 ****        22.5000  21.2500  63.2500 Du        
   2025 ****        22.5000  21.2500  63.5000 Du        
   2026 ****        22.5000  21.2500  63.7500 Du        
   2027 ****        22.5000  21.5000  62.5000 Du        
   2028 ****        22.5000  21.5000  62.7500 Du        
   2029 ****        22.5000  21.5000  63.0000 Du        
   2030 ****        22.5000  21.5000  63.2500 Du        
   2031 ****        22.5000  21.5000  63.5000 Du        
   2032 ****        22.5000  21.7500  62.5000 Du        
   2033 ****        22.5000  21.7500  62.7500 Du        
   2034 ****        22.5000  21.7500  63.0000 Du        
   2035 ****        22.5000  21.7500  63.2500 Du        
   2036 ****        22.5000  22.0000  62.2500 Du        
   2037 ****        22.5000  22.0000  62.5000 Du        
   2038 ****        22.5000  22.0000  62.7500 Du        
   2039 ****        22.5000  22.0000  63.0000 Du        
   2040 ****        22.5000  22.0000  63.2500 Du        
   2041 ****        22.5000  22.2500  62.0000 Du        
   2042 ****        22.5000  22.2500  62.2500 Du        
   2043 ****        22.5000  22.2500  62.5000 Du        
   2044 ****        22.5000  22.2500  62.7500 Du        
   2045 ****        22.5000  22.2500  63.0000 Du        
   2046 ****        22.5000  22.2500  63.2500 Du        
   2047 ****        22.5000  22.5000  62.0000 Du        
   2048 ****        22.5000  22.5000  62.2500 Du        
   2049 ****        22.5000  22.5000  62.5000 Du        
   2050 ****        22.5000  22.5000  62.7500 Du        
   2051 ****        22.5000  22.5000  63.0000 Du        
   2052 ****        22.5000  22.7500  61.7500 Du        
   2053 ****        22.5000  22.7500  62.0000 Du        
   2054 ****        22.5000  22.7500  62.2500 Du        
   2055 ****        22.5000  22.7500  62.5000 Du        
   2056 ****        22.5000  22.7500  62.7500 Du        
   2057 ****        22.5000  23.0000  61.5000 Du        
   2058 ****        22.5000  23.0000  61.7500 Du        
   2059 ****        22.5000  23.0000  62.0000 Du        
   2060 ****        22.5000  23.0000  62.2500 Du        
   2061 ****        22.5000  23.0000  62.5000 Du        
   2062 ****        22.5000  23.0000  62.7500 Du        
   2063 ****        22.5000  23.2500  61.5000 Du        
   2064 ****        22.5000  23.2500  61.7500 Du        
   2065 ****        22.5000  23.2500  62.0000 Du        
   2066 ****        22.5000  23.2500  62.2500 Du        
   2067 ****        22.5000  23.2500  62.5000 Du        
   2068 ****        22.5000  23.5000  62.0000 Du        
   2069 ****        22.5000  23.5000  62.2500 Du        
   2070 ****        22.5000  33.0000  58.7500 Du        
   2071 ****        22.5000  33.0000  59.0000 Du        
   2072 ****        22.5000  33.0000  59.2500 Du        
   2073 ****        22.5000  33.0000  59.5000 Du        
   2074 ****        22.5000  33.0000  59.7500 Du        
   2075 ****        22.5000  33.0000  60.0000 Du        
   2076 ****        22.5000  33.0000  60.2500 Du        
   2077 ****        22.5000  33.2500  58.2500 Du        
   2078 ****        22.5000  33.2500  58.5000 Du        
   2079 ****        22.5000  33.2500  58.7500 Du        
   2080 ****        22.5000  33.2500  59.0000 Du        
   2081 ****        22.5000  33.2500  59.2500 Du        
   2082 ****        22.5000  33.2500  59.5000 Du        
   2083 ****        22.5000  33.2500  59.7500 Du        
   2084 ****        22.5000  33.2500  60.0000 Du        
   2085 ****        22.5000  33.2500  60.2500 Du        
   2086 ****        22.5000  33.5000  58.5000 Du        
   2087 ****        22.5000  33.5000  58.7500 Du        
   2088 ****        22.5000  33.5000  59.0000 Du        
   2089 ****        22.5000  33.5000  59.2500 Du        
   2090 ****        22.5000  33.5000  59.5000 Du        
   2091 ****        22.5000  33.5000  59.7500 Du        
   2092 ****        22.5000  33.5000  60.0000 Du        
   2093 ****        22.5000  33.7500  58.5000 Du        
   2094 ****        22.5000  33.7500  58.7500 Du        
   2095 ****        22.5000  33.7500  59.0000 Du        
   2096 ****        22.5000  33.7500  59.2500 Du        
   2097 ****        22.5000  33.7500  59.5000 Du        
   2098 ****        22.5000  33.7500  59.7500 Du        
   2099 ****        22.5000  33.7500  60.0000 Du        
   2100 ****        22.5000  34.0000  58.7500 Du        
   2101 ****        22.5000  34.0000  59.0000 Du        
   2102 ****        22.5000  34.0000  59.2500 Du        
   2103 ****        22.5000  34.0000  59.5000 Du        
   2104 ****        22.5000  34.0000  59.7500 Du        
   2105 ****        22.5000  34.0000  60.0000 Du        
   2106 ****        22.5000  34.2500  58.7500 Du        
   2107 ****        22.5000  34.2500  59.0000 Du        
   2108 ****        22.5000  34.2500  59.2500 Du        
   2109 ****        22.5000  34.2500  59.5000 Du        
   2110 ****        22.5000  34.2500  59.7500 Du        
   2111 ****        22.5000  34.2500  60.0000 Du        
   2112 ****        22.5000  34.5000  59.0000 Du        
   2113 ****        22.5000  34.5000  59.2500 Du        
   2114 ****        22.5000  34.5000  59.5000 Du        
   2115 ****        22.5000  34.5000  59.7500 Du        
   2116 ****        22.5000  34.7500  59.0000 Du        
   2117 ****        22.5000  34.7500  59.2500 Du        
   2118 ****        22.5000  34.7500  59.5000 Du        
   2119 ****        22.5000  34.7500  59.7500 Du        
   2120 ****        22.5000  35.0000  59.0000 Du        
   2121 ****        22.5000  35.0000  59.2500 Du        
   2122 ****        22.5000  35.0000  59.5000 Du        
   2123 ****        22.5000  35.2500  59.2500 Du        
   2124 ****        22.5000  44.0000  56.7500 Du        
   2125 ****        22.5000  44.0000  57.0000 Du        
   2126 ****        22.5000  44.0000  57.2500 Du        
   2127 ****        22.5000  44.0000  57.5000 Du        
   2128 ****        22.5000  44.0000  57.7500 Du        
   2129 ****        22.5000  44.2500  54.5000 Du        
   2130 ****        22.5000  44.2500  54.7500 Du        
   2131 ****        22.5000  44.2500  55.0000 Du        
   2132 ****        22.5000  44.2500  55.2500 Du        
   2133 ****        22.5000  44.2500  55.5000 Du        
   2134 ****        22.5000  44.2500  55.7500 Du        
   2135 ****        22.5000  44.2500  56.0000 Du        
   2136 ****        22.5000  44.2500  56.2500 Du        
   2137 ****        22.5000  44.2500  56.5000 Du        
   2138 ****        22.5000  44.2500  56.7500 Du        
   2139 ****        22.5000  44.2500  57.0000 Du        
   2140 ****        22.5000  44.2500  57.2500 Du        
   2141 ****        22.5000  44.2500  57.5000 Du        
   2142 ****        22.5000  44.2500  57.7500 Du        
   2143 ****        22.5000  44.5000  54.5000 Du        
   2144 ****        22.5000  44.5000  54.7500 Du        
   2145 ****        22.5000  44.5000  55.0000 Du        
   2146 ****        22.5000  44.5000  55.2500 Du        
   2147 ****        22.5000  44.5000  55.5000 Du        
   2148 ****        22.5000  44.5000  55.7500 Du        
   2149 ****        22.5000  44.5000  56.0000 Du        
   2150 ****        22.5000  44.5000  56.2500 Du        
   2151 ****        22.5000  44.5000  56.5000 Du        
   2152 ****        22.5000  44.5000  56.7500 Du        
   2153 ****        22.5000  44.5000  57.0000 Du        
   2154 ****        22.5000  44.5000  57.2500 Du        
   2155 ****        22.5000  44.5000  57.5000 Du        
   2156 ****        22.5000  44.5000  57.7500 Du        
   2157 ****        22.5000  44.7500  54.2500 Du        
   2158 ****        22.5000  44.7500  54.5000 Du        
   2159 ****        22.5000  44.7500  54.7500 Du        
   2160 ****        22.5000  44.7500  55.0000 Du        
   2161 ****        22.5000  44.7500  55.2500 Du        
   2162 ****        22.5000  44.7500  55.5000 Du        
   2163 ****        22.5000  44.7500  55.7500 Du        
   2164 ****        22.5000  44.7500  56.0000 Du        
   2165 ****        22.5000  44.7500  56.2500 Du        
   2166 ****        22.5000  44.7500  56.5000 Du        
   2167 ****        22.5000  44.7500  56.7500 Du        
   2168 ****        22.5000  44.7500  57.0000 Du        
   2169 ****        22.5000  44.7500  57.2500 Du        
   2170 ****        22.5000  44.7500  57.5000 Du        
   2171 ****        22.5000  44.7500  57.7500 Du        
   2172 ****        22.5000  45.0000  54.5000 Du        
   2173 ****        22.5000  45.0000  54.7500 Du        
   2174 ****        22.5000  45.0000  55.0000 Du        
   2175 ****        22.5000  45.0000  55.2500 Du        
   2176 ****        22.5000  45.0000  55.5000 Du        
   2177 ****        22.5000  45.0000  55.7500 Du        
   2178 ****        22.5000  45.0000  56.0000 Du        
   2179 ****        22.5000  45.0000  56.2500 Du        
   2180 ****        22.5000  45.0000  56.5000 Du        
   2181 ****        22.5000  45.0000  56.7500 Du        
   2182 ****        22.5000  45.0000  57.0000 Du        
   2183 ****        22.5000  45.0000  57.2500 Du        
   2184 ****        22.5000  45.0000  57.5000 Du        
   2185 ****        22.5000  45.2500  54.5000 Du        
   2186 ****        22.5000  45.2500  54.7500 Du        
   2187 ****        22.5000  45.2500  55.0000 Du        
   2188 ****        22.5000  45.2500  55.2500 Du        
   2189 ****        22.5000  45.2500  55.5000 Du        
   2190 ****        22.5000  45.2500  55.7500 Du        
   2191 ****        22.5000  45.2500  56.0000 Du        
   2192 ****        22.5000  45.2500  56.2500 Du        
   2193 ****        22.5000  45.2500  56.5000 Du        
   2194 ****        22.5000  45.2500  56.7500 Du        
   2195 ****        22.5000  45.2500  57.0000 Du        
   2196 ****        22.5000  45.2500  57.2500 Du        
   2197 ****        22.5000  45.2500  57.5000 Du        
   2198 ****        22.5000  45.5000  54.7500 Du        
   2199 ****        22.5000  45.5000  55.0000 Du        
   2200 ****        22.5000  45.5000  55.2500 Du        
   2201 ****        22.5000  45.5000  55.5000 Du        
   2202 ****        22.5000  45.5000  55.7500 Du        
   2203 ****        22.5000  45.5000  56.0000 Du        
   2204 ****        22.5000  45.5000  56.2500 Du        
   2205 ****        22.5000  45.5000  56.5000 Du        
   2206 ****        22.5000  45.5000  56.7500 Du        
   2207 ****        22.5000  45.5000  57.0000 Du        
   2208 ****        22.5000  45.7500  55.0000 Du        
   2209 ****        22.5000  45.7500  55.2500 Du        
   2210 ****        22.5000  45.7500  55.5000 Du        
   2211 ****        22.5000  45.7500  55.7500 Du        
   2212 ****        22.5000  45.7500  56.0000 Du        
   2213 ****        22.5000  45.7500  56.2500 Du        
   2214 ****        22.5000  45.7500  56.5000 Du        
   2215 ****        22.5000  45.7500  56.7500 Du        
   2216 ****        22.5000  45.7500  57.0000 Du        
   2217 ****        22.5000  46.0000  56.0000 Du        
   2218 ****        22.5000  46.0000  56.2500 Du        
   2219 ****        22.7500  18.2500  62.7500 Du        
   2220 ****        22.7500  18.5000  62.2500 Du        
   2221 ****        22.7500  18.5000  62.5000 Du        
   2222 ****        22.7500  18.5000  62.7500 Du        
   2223 ****        22.7500  18.5000  63.0000 Du        
   2224 ****        22.7500  18.5000  63.2500 Du        
   2225 ****        22.7500  18.7500  62.0000 Du        
   2226 ****        22.7500  18.7500  62.2500 Du        
   2227 ****        22.7500  18.7500  62.5000 Du        
   2228 ****        22.7500  18.7500  62.7500 Du        
   2229 ****        22.7500  18.7500  63.0000 Du        
   2230 ****        22.7500  18.7500  63.2500 Du        
   2231 ****        22.7500  18.7500  63.5000 Du        
   2232 ****        22.7500  18.7500  63.7500 Du        
   2233 ****        22.7500  19.0000  62.0000 Du        
   2234 ****        22.7500  19.0000  62.2500 Du        
   2235 ****        22.7500  19.0000  62.5000 Du        
   2236 ****        22.7500  19.0000  62.7500 Du        
   2237 ****        22.7500  19.0000  63.0000 Du        
   2238 ****        22.7500  19.0000  63.2500 Du        
   2239 ****        22.7500  19.0000  63.5000 Du        
   2240 ****        22.7500  19.0000  63.7500 Du        
   2241 ****        22.7500  19.0000  64.0000 Du        
   2242 ****        22.7500  19.2500  62.0000 Du        
   2243 ****        22.7500  19.2500  62.2500 Du        
   2244 ****        22.7500  19.2500  62.5000 Du        
   2245 ****        22.7500  19.2500  62.7500 Du        
   2246 ****        22.7500  19.2500  63.0000 Du        
   2247 ****        22.7500  19.2500  63.2500 Du        
   2248 ****        22.7500  19.2500  63.5000 Du        
   2249 ****        22.7500  19.2500  63.7500 Du        
   2250 ****        22.7500  19.2500  64.0000 Du        
   2251 ****        22.7500  19.5000  62.2500 Du        
   2252 ****        22.7500  19.5000  62.5000 Du        
   2253 ****        22.7500  19.5000  62.7500 Du        
   2254 ****        22.7500  19.5000  63.0000 Du        
   2255 ****        22.7500  19.5000  63.2500 Du        
   2256 ****        22.7500  19.5000  63.5000 Du        
   2257 ****        22.7500  19.5000  63.7500 Du        
   2258 ****        22.7500  19.5000  64.0000 Du        
   2259 ****        22.7500  19.5000  64.2500 Du        
   2260 ****        22.7500  19.7500  62.2500 Du        
   2261 ****        22.7500  19.7500  62.5000 Du        
   2262 ****        22.7500  19.7500  62.7500 Du        
   2263 ****        22.7500  19.7500  63.0000 Du        
   2264 ****        22.7500  19.7500  63.2500 Du        
   2265 ****        22.7500  19.7500  63.5000 Du        
   2266 ****        22.7500  19.7500  63.7500 Du        
   2267 ****        22.7500  19.7500  64.0000 Du        
   2268 ****        22.7500  19.7500  64.2500 Du        
   2269 ****        22.7500  19.7500  64.5000 Du        
   2270 ****        22.7500  20.0000  62.2500 Du        
   2271 ****        22.7500  20.0000  62.5000 Du        
   2272 ****        22.7500  20.0000  62.7500 Du        
   2273 ****        22.7500  20.0000  63.0000 Du        
   2274 ****        22.7500  20.0000  63.2500 Du        
   2275 ****        22.7500  20.0000  63.5000 Du        
   2276 ****        22.7500  20.0000  63.7500 Du        
   2277 ****        22.7500  20.0000  64.0000 Du        
   2278 ****        22.7500  20.0000  64.2500 Du        
   2279 ****        22.7500  20.0000  64.5000 Du        
   2280 ****        22.7500  20.0000  64.7500 Du        
   2281 ****        22.7500  20.2500  62.5000 Du        
   2282 ****        22.7500  20.2500  62.7500 Du        
   2283 ****        22.7500  20.2500  63.0000 Du        
   2284 ****        22.7500  20.2500  63.2500 Du        
   2285 ****        22.7500  20.2500  63.5000 Du        
   2286 ****        22.7500  20.2500  63.7500 Du        
   2287 ****        22.7500  20.2500  64.0000 Du        
   2288 ****        22.7500  20.2500  64.2500 Du        
   2289 ****        22.7500  20.2500  64.5000 Du        
   2290 ****        22.7500  20.2500  64.7500 Du        
   2291 ****        22.7500  20.5000  62.5000 Du        
   2292 ****        22.7500  20.5000  62.7500 Du        
   2293 ****        22.7500  20.5000  63.0000 Du        
   2294 ****        22.7500  20.5000  63.2500 Du        
   2295 ****        22.7500  20.5000  63.5000 Du        
   2296 ****        22.7500  20.5000  63.7500 Du        
   2297 ****        22.7500  20.5000  64.0000 Du        
   2298 ****        22.7500  20.5000  64.2500 Du        
   2299 ****        22.7500  20.5000  64.5000 Du        
   2300 ****        22.7500  20.7500  62.5000 Du        
   2301 ****        22.7500  20.7500  62.7500 Du        
   2302 ****        22.7500  20.7500  63.0000 Du        
   2303 ****        22.7500  20.7500  63.2500 Du        
   2304 ****        22.7500  20.7500  63.5000 Du        
   2305 ****        22.7500  20.7500  63.7500 Du        
   2306 ****        22.7500  20.7500  64.0000 Du        
   2307 ****        22.7500  20.7500  64.2500 Du        
   2308 ****        22.7500  21.0000  62.5000 Du        
   2309 ****        22.7500  21.0000  62.7500 Du        
   2310 ****        22.7500  21.0000  63.0000 Du        
   2311 ****        22.7500  21.0000  63.2500 Du        
   2312 ****        22.7500  21.0000  63.5000 Du        
   2313 ****        22.7500  21.0000  63.7500 Du        
   2314 ****        22.7500  21.0000  64.0000 Du        
   2315 ****        22.7500  21.2500  62.5000 Du        
   2316 ****        22.7500  21.2500  62.7500 Du        
   2317 ****        22.7500  21.2500  63.0000 Du        
   2318 ****        22.7500  21.2500  63.2500 Du        
   2319 ****        22.7500  21.2500  63.5000 Du        
   2320 ****        22.7500  21.2500  63.7500 Du        
   2321 ****        22.7500  21.5000  62.5000 Du        
   2322 ****        22.7500  21.5000  62.7500 Du        
   2323 ****        22.7500  21.5000  63.0000 Du        
   2324 ****        22.7500  21.5000  63.2500 Du        
   2325 ****        22.7500  21.5000  63.5000 Du        
   2326 ****        22.7500  21.7500  62.2500 Du        
   2327 ****        22.7500  21.7500  62.5000 Du        
   2328 ****        22.7500  21.7500  62.7500 Du        
   2329 ****        22.7500  21.7500  63.0000 Du        
   2330 ****        22.7500  21.7500  63.2500 Du        
   2331 ****        22.7500  21.7500  63.5000 Du        
   2332 ****        22.7500  22.0000  62.2500 Du        
   2333 ****        22.7500  22.0000  62.5000 Du        
   2334 ****        22.7500  22.0000  62.7500 Du        
   2335 ****        22.7500  22.0000  63.0000 Du        
   2336 ****        22.7500  22.0000  63.2500 Du        
   2337 ****        22.7500  22.2500  54.7500 Du        
   2338 ****        22.7500  22.2500  62.0000 Du        
   2339 ****        22.7500  22.2500  62.2500 Du        
   2340 ****        22.7500  22.2500  62.5000 Du        
   2341 ****        22.7500  22.2500  62.7500 Du        
   2342 ****        22.7500  22.2500  63.0000 Du        
   2343 ****        22.7500  22.2500  63.2500 Du        
   2344 ****        22.7500  22.5000  61.7500 Du        
   2345 ****        22.7500  22.5000  62.0000 Du        
   2346 ****        22.7500  22.5000  62.2500 Du        
   2347 ****        22.7500  22.5000  62.5000 Du        
   2348 ****        22.7500  22.5000  62.7500 Du        
   2349 ****        22.7500  22.5000  63.0000 Du        
   2350 ****        22.7500  22.7500  61.5000 Du        
   2351 ****        22.7500  22.7500  61.7500 Du        
   2352 ****        22.7500  22.7500  62.0000 Du        
   2353 ****        22.7500  22.7500  62.2500 Du        
   2354 ****        22.7500  22.7500  62.5000 Du        
   2355 ****        22.7500  22.7500  62.7500 Du        
   2356 ****        22.7500  23.0000  61.2500 Du        
   2357 ****        22.7500  23.0000  61.5000 Du        
   2358 ****        22.7500  23.0000  61.7500 Du        
   2359 ****        22.7500  23.0000  62.0000 Du        
   2360 ****        22.7500  23.0000  62.2500 Du        
   2361 ****        22.7500  23.0000  62.5000 Du        
   2362 ****        22.7500  23.0000  62.7500 Du        
   2363 ****        22.7500  23.2500  61.2500 Du        
   2364 ****        22.7500  23.2500  61.5000 Du        
   2365 ****        22.7500  23.2500  61.7500 Du        
   2366 ****        22.7500  23.2500  62.0000 Du        
   2367 ****        22.7500  23.2500  62.2500 Du        
   2368 ****        22.7500  23.2500  62.5000 Du        
   2369 ****        22.7500  23.5000  61.7500 Du        
   2370 ****        22.7500  23.5000  62.0000 Du        
   2371 ****        22.7500  23.5000  62.2500 Du        
   2372 ****        22.7500  32.7500  59.2500 Du        
   2373 ****        22.7500  32.7500  59.5000 Du        
   2374 ****        22.7500  32.7500  59.7500 Du        
   2375 ****        22.7500  32.7500  60.0000 Du        
   2376 ****        22.7500  32.7500  60.2500 Du        
   2377 ****        22.7500  33.0000  58.5000 Du        
   2378 ****        22.7500  33.0000  58.7500 Du        
   2379 ****        22.7500  33.0000  59.0000 Du        
   2380 ****        22.7500  33.0000  59.2500 Du        
   2381 ****        22.7500  33.0000  59.5000 Du        
   2382 ****        22.7500  33.0000  59.7500 Du        
   2383 ****        22.7500  33.0000  60.0000 Du        
   2384 ****        22.7500  33.0000  60.2500 Du        
   2385 ****        22.7500  33.2500  58.2500 Du        
   2386 ****        22.7500  33.2500  58.5000 Du        
   2387 ****        22.7500  33.2500  58.7500 Du        
   2388 ****        22.7500  33.2500  59.0000 Du        
   2389 ****        22.7500  33.2500  59.2500 Du        
   2390 ****        22.7500  33.2500  59.5000 Du        
   2391 ****        22.7500  33.2500  59.7500 Du        
   2392 ****        22.7500  33.2500  60.0000 Du        
   2393 ****        22.7500  33.2500  60.2500 Du        
   2394 ****        22.7500  33.5000  58.5000 Du        
   2395 ****        22.7500  33.5000  58.7500 Du        
   2396 ****        22.7500  33.5000  59.0000 Du        
   2397 ****        22.7500  33.5000  59.2500 Du        
   2398 ****        22.7500  33.5000  59.5000 Du        
   2399 ****        22.7500  33.5000  59.7500 Du        
   2400 ****        22.7500  33.5000  60.0000 Du        
   2401 ****        22.7500  33.5000  60.2500 Du        
   2402 ****        22.7500  33.7500  58.5000 Du        
   2403 ****        22.7500  33.7500  58.7500 Du        
   2404 ****        22.7500  33.7500  59.0000 Du        
   2405 ****        22.7500  33.7500  59.2500 Du        
   2406 ****        22.7500  33.7500  59.5000 Du        
   2407 ****        22.7500  33.7500  59.7500 Du        
   2408 ****        22.7500  33.7500  60.0000 Du        
   2409 ****        22.7500  33.7500  60.2500 Du        
   2410 ****        22.7500  34.0000  58.7500 Du        
   2411 ****        22.7500  34.0000  59.0000 Du        
   2412 ****        22.7500  34.0000  59.2500 Du        
   2413 ****        22.7500  34.0000  59.5000 Du        
   2414 ****        22.7500  34.0000  59.7500 Du        
   2415 ****        22.7500  34.0000  60.0000 Du        
   2416 ****        22.7500  34.2500  58.7500 Du        
   2417 ****        22.7500  34.2500  59.0000 Du        
   2418 ****        22.7500  34.2500  59.2500 Du        
   2419 ****        22.7500  34.2500  59.5000 Du        
   2420 ****        22.7500  34.2500  59.7500 Du        
   2421 ****        22.7500  34.2500  60.0000 Du        
   2422 ****        22.7500  34.5000  59.0000 Du        
   2423 ****        22.7500  34.5000  59.2500 Du        
   2424 ****        22.7500  34.5000  59.5000 Du        
   2425 ****        22.7500  34.5000  59.7500 Du        
   2426 ****        22.7500  34.7500  59.0000 Du        
   2427 ****        22.7500  34.7500  59.2500 Du        
   2428 ****        22.7500  34.7500  59.5000 Du        
   2429 ****        22.7500  34.7500  59.7500 Du        
   2430 ****        22.7500  35.0000  59.2500 Du        
   2431 ****        22.7500  44.0000  57.2500 Du        
   2432 ****        22.7500  44.0000  57.5000 Du        
   2433 ****        22.7500  44.2500  56.7500 Du        
   2434 ****        22.7500  44.2500  57.0000 Du        
   2435 ****        22.7500  44.2500  57.2500 Du        
   2436 ****        22.7500  44.2500  57.5000 Du        
   2437 ****        22.7500  44.2500  57.7500 Du        
   2438 ****        22.7500  44.5000  55.0000 Du        
   2439 ****        22.7500  44.5000  55.2500 Du        
   2440 ****        22.7500  44.5000  55.5000 Du        
   2441 ****        22.7500  44.5000  55.7500 Du        
   2442 ****        22.7500  44.5000  56.0000 Du        
   2443 ****        22.7500  44.5000  56.2500 Du        
   2444 ****        22.7500  44.5000  56.5000 Du        
   2445 ****        22.7500  44.5000  56.7500 Du        
   2446 ****        22.7500  44.5000  57.0000 Du        
   2447 ****        22.7500  44.5000  57.2500 Du        
   2448 ****        22.7500  44.5000  57.5000 Du        
   2449 ****        22.7500  44.5000  57.7500 Du        
   2450 ****        22.7500  44.7500  54.7500 Du        
   2451 ****        22.7500  44.7500  55.0000 Du        
   2452 ****        22.7500  44.7500  55.2500 Du        
   2453 ****        22.7500  44.7500  55.5000 Du        
   2454 ****        22.7500  44.7500  55.7500 Du        
   2455 ****        22.7500  44.7500  56.0000 Du        
   2456 ****        22.7500  44.7500  56.2500 Du        
   2457 ****        22.7500  44.7500  56.5000 Du        
   2458 ****        22.7500  44.7500  56.7500 Du        
   2459 ****        22.7500  44.7500  57.0000 Du        
   2460 ****        22.7500  44.7500  57.2500 Du        
   2461 ****        22.7500  44.7500  57.5000 Du        
   2462 ****        22.7500  45.0000  54.7500 Du        
   2463 ****        22.7500  45.0000  55.0000 Du        
   2464 ****        22.7500  45.0000  55.2500 Du        
   2465 ****        22.7500  45.0000  55.5000 Du        
   2466 ****        22.7500  45.0000  55.7500 Du        
   2467 ****        22.7500  45.0000  56.0000 Du        
   2468 ****        22.7500  45.0000  56.2500 Du        
   2469 ****        22.7500  45.0000  56.5000 Du        
   2470 ****        22.7500  45.0000  56.7500 Du        
   2471 ****        22.7500  45.0000  57.0000 Du        
   2472 ****        22.7500  45.0000  57.2500 Du        
   2473 ****        22.7500  45.0000  57.5000 Du        
   2474 ****        22.7500  45.2500  54.7500 Du        
   2475 ****        22.7500  45.2500  55.0000 Du        
   2476 ****        22.7500  45.2500  55.2500 Du        
   2477 ****        22.7500  45.2500  55.5000 Du        
   2478 ****        22.7500  45.2500  55.7500 Du        
   2479 ****        22.7500  45.2500  56.0000 Du        
   2480 ****        22.7500  45.2500  56.2500 Du        
   2481 ****        22.7500  45.2500  56.5000 Du        
   2482 ****        22.7500  45.2500  56.7500 Du        
   2483 ****        22.7500  45.2500  57.0000 Du        
   2484 ****        22.7500  45.2500  57.2500 Du        
   2485 ****        22.7500  45.2500  57.5000 Du        
   2486 ****        22.7500  45.5000  55.2500 Du        
   2487 ****        22.7500  45.5000  55.5000 Du        
   2488 ****        22.7500  45.5000  55.7500 Du        
   2489 ****        22.7500  45.5000  56.0000 Du        
   2490 ****        22.7500  45.5000  56.2500 Du        
   2491 ****        22.7500  45.5000  56.5000 Du        
   2492 ****        22.7500  45.5000  56.7500 Du        
   2493 ****        22.7500  45.5000  57.0000 Du        
   2494 ****        22.7500  45.5000  57.2500 Du        
   2495 ****        22.7500  45.7500  55.7500 Du        
   2496 ****        22.7500  45.7500  56.0000 Du        
   2497 ****        22.7500  45.7500  56.2500 Du        
   2498 ****        22.7500  45.7500  56.5000 Du        
   2499 ****        22.7500  45.7500  56.7500 Du        
   2500 ****        22.7500  45.7500  57.0000 Du        
   2501 ****        22.7500  46.0000  56.2500 Du        
   2502 ****        22.7500  46.0000  56.5000 Du        
   2503 ****        22.7500  46.0000  56.7500 Du        
   2504 ****        22.7500  46.0000  57.0000 Du        
   2505 ****        23.0000  18.0000  63.0000 Du        
   2506 ****        23.0000  18.0000  63.2500 Du        
   2507 ****        23.0000  18.2500  62.7500 Du        
   2508 ****        23.0000  18.2500  63.0000 Du        
   2509 ****        23.0000  18.2500  63.2500 Du        
   2510 ****        23.0000  18.2500  63.5000 Du        
   2511 ****        23.0000  18.5000  62.2500 Du        
   2512 ****        23.0000  18.5000  62.5000 Du        
   2513 ****        23.0000  18.5000  62.7500 Du        
   2514 ****        23.0000  18.5000  63.0000 Du        
   2515 ****        23.0000  18.5000  63.2500 Du        
   2516 ****        23.0000  18.5000  63.5000 Du        
   2517 ****        23.0000  18.5000  63.7500 Du        
   2518 ****        23.0000  18.7500  62.0000 Du        
   2519 ****        23.0000  18.7500  62.2500 Du        
   2520 ****        23.0000  18.7500  62.5000 Du        
   2521 ****        23.0000  18.7500  62.7500 Du        
   2522 ****        23.0000  18.7500  63.0000 Du        
   2523 ****        23.0000  18.7500  63.2500 Du        
   2524 ****        23.0000  18.7500  63.5000 Du        
   2525 ****        23.0000  18.7500  63.7500 Du        
   2526 ****        23.0000  18.7500  64.0000 Du        
   2527 ****        23.0000  19.0000  61.7500 Du        
   2528 ****        23.0000  19.0000  62.0000 Du        
   2529 ****        23.0000  19.0000  62.2500 Du        
   2530 ****        23.0000  19.0000  62.5000 Du        
   2531 ****        23.0000  19.0000  62.7500 Du        
   2532 ****        23.0000  19.0000  63.0000 Du        
   2533 ****        23.0000  19.0000  63.2500 Du        
   2534 ****        23.0000  19.0000  63.5000 Du        
   2535 ****        23.0000  19.0000  63.7500 Du        
   2536 ****        23.0000  19.0000  64.0000 Du        
   2537 ****        23.0000  19.0000  64.2500 Du        
   2538 ****        23.0000  19.2500  62.0000 Du        
   2539 ****        23.0000  19.2500  62.2500 Du        
   2540 ****        23.0000  19.2500  62.5000 Du        
   2541 ****        23.0000  19.2500  62.7500 Du        
   2542 ****        23.0000  19.2500  63.0000 Du        
   2543 ****        23.0000  19.2500  63.2500 Du        
   2544 ****        23.0000  19.2500  63.5000 Du        
   2545 ****        23.0000  19.2500  63.7500 Du        
   2546 ****        23.0000  19.2500  64.0000 Du        
   2547 ****        23.0000  19.2500  64.2500 Du        
   2548 ****        23.0000  19.2500  64.5000 Du        
   2549 ****        23.0000  19.5000  62.0000 Du        
   2550 ****        23.0000  19.5000  62.2500 Du        
   2551 ****        23.0000  19.5000  62.5000 Du        
   2552 ****        23.0000  19.5000  62.7500 Du        
   2553 ****        23.0000  19.5000  63.0000 Du        
   2554 ****        23.0000  19.5000  63.2500 Du        
   2555 ****        23.0000  19.5000  63.5000 Du        
   2556 ****        23.0000  19.5000  63.7500 Du        
   2557 ****        23.0000  19.5000  64.0000 Du        
   2558 ****        23.0000  19.5000  64.2500 Du        
   2559 ****        23.0000  19.5000  64.5000 Du        
   2560 ****        23.0000  19.5000  64.7500 Du        
   2561 ****        23.0000  19.7500  62.2500 Du        
   2562 ****        23.0000  19.7500  62.5000 Du        
   2563 ****        23.0000  19.7500  62.7500 Du        
   2564 ****        23.0000  19.7500  63.0000 Du        
   2565 ****        23.0000  19.7500  63.2500 Du        
   2566 ****        23.0000  19.7500  63.5000 Du        
   2567 ****        23.0000  19.7500  63.7500 Du        
   2568 ****        23.0000  19.7500  64.0000 Du        
   2569 ****        23.0000  19.7500  64.2500 Du        
   2570 ****        23.0000  19.7500  64.5000 Du        
   2571 ****        23.0000  19.7500  64.7500 Du        
   2572 ****        23.0000  19.7500  65.0000 Du        
   2573 ****        23.0000  20.0000  62.2500 Du        
   2574 ****        23.0000  20.0000  62.5000 Du        
   2575 ****        23.0000  20.0000  62.7500 Du        
   2576 ****        23.0000  20.0000  63.0000 Du        
   2577 ****        23.0000  20.0000  63.2500 Du        
   2578 ****        23.0000  20.0000  63.5000 Du        
   2579 ****        23.0000  20.0000  63.7500 Du        
   2580 ****        23.0000  20.0000  64.0000 Du        
   2581 ****        23.0000  20.0000  64.2500 Du        
   2582 ****        23.0000  20.0000  64.5000 Du        
   2583 ****        23.0000  20.0000  64.7500 Du        
   2584 ****        23.0000  20.0000  65.0000 Du        
   2585 ****        23.0000  20.2500  62.2500 Du        
   2586 ****        23.0000  20.2500  62.5000 Du        
   2587 ****        23.0000  20.2500  62.7500 Du        
   2588 ****        23.0000  20.2500  63.0000 Du        
   2589 ****        23.0000  20.2500  63.2500 Du        
   2590 ****        23.0000  20.2500  63.5000 Du        
   2591 ****        23.0000  20.2500  63.7500 Du        
   2592 ****        23.0000  20.2500  64.0000 Du        
   2593 ****        23.0000  20.2500  64.2500 Du        
   2594 ****        23.0000  20.2500  64.5000 Du        
   2595 ****        23.0000  20.2500  64.7500 Du        
   2596 ****        23.0000  20.2500  65.0000 Du        
   2597 ****        23.0000  20.5000  62.5000 Du        
   2598 ****        23.0000  20.5000  62.7500 Du        
   2599 ****        23.0000  20.5000  63.0000 Du        
   2600 ****        23.0000  20.5000  63.2500 Du        
   2601 ****        23.0000  20.5000  63.5000 Du        
   2602 ****        23.0000  20.5000  63.7500 Du        
   2603 ****        23.0000  20.5000  64.0000 Du        
   2604 ****        23.0000  20.5000  64.2500 Du        
   2605 ****        23.0000  20.5000  64.5000 Du        
   2606 ****        23.0000  20.7500  62.5000 Du        
   2607 ****        23.0000  20.7500  62.7500 Du        
   2608 ****        23.0000  20.7500  63.0000 Du        
   2609 ****        23.0000  20.7500  63.2500 Du        
   2610 ****        23.0000  20.7500  63.5000 Du        
   2611 ****        23.0000  20.7500  63.7500 Du        
   2612 ****        23.0000  20.7500  64.0000 Du        
   2613 ****        23.0000  20.7500  64.2500 Du        
   2614 ****        23.0000  21.0000  62.5000 Du        
   2615 ****        23.0000  21.0000  62.7500 Du        
   2616 ****        23.0000  21.0000  63.0000 Du        
   2617 ****        23.0000  21.0000  63.2500 Du        
   2618 ****        23.0000  21.0000  63.5000 Du        
   2619 ****        23.0000  21.0000  63.7500 Du        
   2620 ****        23.0000  21.0000  64.0000 Du        
   2621 ****        23.0000  21.2500  62.2500 Du        
   2622 ****        23.0000  21.2500  62.5000 Du        
   2623 ****        23.0000  21.2500  62.7500 Du        
   2624 ****        23.0000  21.2500  63.0000 Du        
   2625 ****        23.0000  21.2500  63.2500 Du        
   2626 ****        23.0000  21.2500  63.5000 Du        
   2627 ****        23.0000  21.2500  63.7500 Du        
   2628 ****        23.0000  21.5000  62.2500 Du        
   2629 ****        23.0000  21.5000  62.5000 Du        
   2630 ****        23.0000  21.5000  62.7500 Du        
   2631 ****        23.0000  21.5000  63.0000 Du        
   2632 ****        23.0000  21.5000  63.2500 Du        
   2633 ****        23.0000  21.5000  63.5000 Du        
   2634 ****        23.0000  21.7500  62.2500 Du        
   2635 ****        23.0000  21.7500  62.5000 Du        
   2636 ****        23.0000  21.7500  62.7500 Du        
   2637 ****        23.0000  21.7500  63.0000 Du        
   2638 ****        23.0000  21.7500  63.2500 Du        
   2639 ****        23.0000  21.7500  63.5000 Du        
   2640 ****        23.0000  22.0000  62.0000 Du        
   2641 ****        23.0000  22.0000  62.2500 Du        
   2642 ****        23.0000  22.0000  62.5000 Du        
   2643 ****        23.0000  22.0000  62.7500 Du        
   2644 ****        23.0000  22.0000  63.0000 Du        
   2645 ****        23.0000  22.0000  63.2500 Du        
   2646 ****        23.0000  22.2500  54.7500 Du        
   2647 ****        23.0000  22.2500  55.0000 Du        
   2648 ****        23.0000  22.2500  62.0000 Du        
   2649 ****        23.0000  22.2500  62.2500 Du        
   2650 ****        23.0000  22.2500  62.5000 Du        
   2651 ****        23.0000  22.2500  62.7500 Du        
   2652 ****        23.0000  22.2500  63.0000 Du        
   2653 ****        23.0000  22.2500  63.2500 Du        
   2654 ****        23.0000  22.5000  61.7500 Du        
   2655 ****        23.0000  22.5000  62.0000 Du        
   2656 ****        23.0000  22.5000  62.2500 Du        
   2657 ****        23.0000  22.5000  62.5000 Du        
   2658 ****        23.0000  22.5000  62.7500 Du        
   2659 ****        23.0000  22.5000  63.0000 Du        
   2660 ****        23.0000  22.7500  61.5000 Du        
   2661 ****        23.0000  22.7500  61.7500 Du        
   2662 ****        23.0000  22.7500  62.0000 Du        
   2663 ****        23.0000  22.7500  62.2500 Du        
   2664 ****        23.0000  22.7500  62.5000 Du        
   2665 ****        23.0000  22.7500  62.7500 Du        
   2666 ****        23.0000  23.0000  61.0000 Du        
   2667 ****        23.0000  23.0000  61.2500 Du        
   2668 ****        23.0000  23.0000  61.5000 Du        
   2669 ****        23.0000  23.0000  61.7500 Du        
   2670 ****        23.0000  23.0000  62.0000 Du        
   2671 ****        23.0000  23.0000  62.2500 Du        
   2672 ****        23.0000  23.0000  62.5000 Du        
   2673 ****        23.0000  23.0000  62.7500 Du        
   2674 ****        23.0000  23.2500  61.0000 Du        
   2675 ****        23.0000  23.2500  61.2500 Du        
   2676 ****        23.0000  23.2500  61.5000 Du        
   2677 ****        23.0000  23.2500  61.7500 Du        
   2678 ****        23.0000  23.2500  62.0000 Du        
   2679 ****        23.0000  23.2500  62.2500 Du        
   2680 ****        23.0000  23.2500  62.5000 Du        
   2681 ****        23.0000  23.5000  61.5000 Du        
   2682 ****        23.0000  23.5000  61.7500 Du        
   2683 ****        23.0000  23.5000  62.0000 Du        
   2684 ****        23.0000  23.5000  62.2500 Du        
   2685 ****        23.0000  23.7500  62.0000 Du        
   2686 ****        23.0000  32.2500  60.2500 Du        
   2687 ****        23.0000  32.5000  59.5000 Du        
   2688 ****        23.0000  32.5000  59.7500 Du        
   2689 ****        23.0000  32.5000  60.0000 Du        
   2690 ****        23.0000  32.5000  60.2500 Du        
   2691 ****        23.0000  32.7500  58.7500 Du        
   2692 ****        23.0000  32.7500  59.0000 Du        
   2693 ****        23.0000  32.7500  59.2500 Du        
   2694 ****        23.0000  32.7500  59.5000 Du        
   2695 ****        23.0000  32.7500  59.7500 Du        
   2696 ****        23.0000  32.7500  60.0000 Du        
   2697 ****        23.0000  32.7500  60.2500 Du        
   2698 ****        23.0000  33.0000  58.5000 Du        
   2699 ****        23.0000  33.0000  58.7500 Du        
   2700 ****        23.0000  33.0000  59.0000 Du        
   2701 ****        23.0000  33.0000  59.2500 Du        
   2702 ****        23.0000  33.0000  59.5000 Du        
   2703 ****        23.0000  33.0000  59.7500 Du        
   2704 ****        23.0000  33.0000  60.0000 Du        
   2705 ****        23.0000  33.0000  60.2500 Du        
   2706 ****        23.0000  33.2500  58.5000 Du        
   2707 ****        23.0000  33.2500  58.7500 Du        
   2708 ****        23.0000  33.2500  59.0000 Du        
   2709 ****        23.0000  33.2500  59.2500 Du        
   2710 ****        23.0000  33.2500  59.5000 Du        
   2711 ****        23.0000  33.2500  59.7500 Du        
   2712 ****        23.0000  33.2500  60.0000 Du        
   2713 ****        23.0000  33.2500  60.2500 Du        
   2714 ****        23.0000  33.5000  58.5000 Du        
   2715 ****        23.0000  33.5000  58.7500 Du        
   2716 ****        23.0000  33.5000  59.0000 Du        
   2717 ****        23.0000  33.5000  59.2500 Du        
   2718 ****        23.0000  33.5000  59.5000 Du        
   2719 ****        23.0000  33.5000  59.7500 Du        
   2720 ****        23.0000  33.5000  60.0000 Du        
   2721 ****        23.0000  33.5000  60.2500 Du        
   2722 ****        23.0000  33.7500  58.5000 Du        
   2723 ****        23.0000  33.7500  58.7500 Du        
   2724 ****        23.0000  33.7500  59.0000 Du        
   2725 ****        23.0000  33.7500  59.2500 Du        
   2726 ****        23.0000  33.7500  59.5000 Du        
   2727 ****        23.0000  33.7500  59.7500 Du        
   2728 ****        23.0000  33.7500  60.0000 Du        
   2729 ****        23.0000  33.7500  60.2500 Du        
   2730 ****        23.0000  34.0000  58.7500 Du        
   2731 ****        23.0000  34.0000  59.0000 Du        
   2732 ****        23.0000  34.0000  59.2500 Du        
   2733 ****        23.0000  34.0000  59.5000 Du        
   2734 ****        23.0000  34.0000  59.7500 Du        
   2735 ****        23.0000  34.0000  60.0000 Du        
   2736 ****        23.0000  34.0000  60.2500 Du        
   2737 ****        23.0000  34.2500  59.0000 Du        
   2738 ****        23.0000  34.2500  59.2500 Du        
   2739 ****        23.0000  34.2500  59.5000 Du        
   2740 ****        23.0000  34.2500  59.7500 Du        
   2741 ****        23.0000  34.2500  60.0000 Du        
   2742 ****        23.0000  34.5000  59.0000 Du        
   2743 ****        23.0000  34.5000  59.2500 Du        
   2744 ****        23.0000  34.5000  59.5000 Du        
   2745 ****        23.0000  34.5000  59.7500 Du        
   2746 ****        23.0000  34.5000  60.0000 Du        
   2747 ****        23.0000  34.7500  59.0000 Du        
   2748 ****        23.0000  34.7500  59.2500 Du        
   2749 ****        23.0000  34.7500  59.5000 Du        
   2750 ****        23.0000  34.7500  59.7500 Du        
   2751 ****        23.0000  44.2500  57.0000 Du        
   2752 ****        23.0000  44.2500  57.2500 Du        
   2753 ****        23.0000  44.5000  56.5000 Du        
   2754 ****        23.0000  44.5000  56.7500 Du        
   2755 ****        23.0000  44.5000  57.0000 Du        
   2756 ****        23.0000  44.5000  57.2500 Du        
   2757 ****        23.0000  44.5000  57.5000 Du        
   2758 ****        23.0000  44.7500  55.2500 Du        
   2759 ****        23.0000  44.7500  55.5000 Du        
   2760 ****        23.0000  44.7500  55.7500 Du        
   2761 ****        23.0000  44.7500  56.0000 Du        
   2762 ****        23.0000  44.7500  56.2500 Du        
   2763 ****        23.0000  44.7500  56.5000 Du        
   2764 ****        23.0000  44.7500  56.7500 Du        
   2765 ****        23.0000  44.7500  57.0000 Du        
   2766 ****        23.0000  44.7500  57.2500 Du        
   2767 ****        23.0000  44.7500  57.5000 Du        
   2768 ****        23.0000  45.0000  55.2500 Du        
   2769 ****        23.0000  45.0000  55.5000 Du        
   2770 ****        23.0000  45.0000  55.7500 Du        
   2771 ****        23.0000  45.0000  56.0000 Du        
   2772 ****        23.0000  45.0000  56.2500 Du        
   2773 ****        23.0000  45.0000  56.5000 Du        
   2774 ****        23.0000  45.0000  56.7500 Du        
   2775 ****        23.0000  45.0000  57.0000 Du        
   2776 ****        23.0000  45.0000  57.2500 Du        
   2777 ****        23.0000  45.0000  57.5000 Du        
   2778 ****        23.0000  45.2500  55.5000 Du        
   2779 ****        23.0000  45.2500  55.7500 Du        
   2780 ****        23.0000  45.2500  56.0000 Du        
   2781 ****        23.0000  45.2500  56.2500 Du        
   2782 ****        23.0000  45.2500  56.5000 Du        
   2783 ****        23.0000  45.2500  56.7500 Du        
   2784 ****        23.0000  45.2500  57.0000 Du        
   2785 ****        23.0000  45.2500  57.2500 Du        
   2786 ****        23.0000  45.5000  55.7500 Du        
   2787 ****        23.0000  45.5000  56.0000 Du        
   2788 ****        23.0000  45.5000  56.2500 Du        
   2789 ****        23.0000  45.5000  56.5000 Du        
   2790 ****        23.0000  45.5000  56.7500 Du        
   2791 ****        23.0000  45.5000  57.0000 Du        
   2792 ****        23.0000  45.5000  57.2500 Du        
   2793 ****        23.0000  45.7500  56.2500 Du        
   2794 ****        23.0000  45.7500  56.5000 Du        
   2795 ****        23.0000  45.7500  56.7500 Du        
   2796 ****        23.0000  45.7500  57.0000 Du        
   2797 ****        23.0000  45.7500  57.2500 Du        
   2798 ****        23.0000  46.0000  56.7500 Du        
   2799 ****        23.0000  46.0000  57.0000 Du        
   2800 ****        23.2500  18.0000  63.0000 Du        
   2801 ****        23.2500  18.0000  63.2500 Du        
   2802 ****        23.2500  18.2500  62.7500 Du        
   2803 ****        23.2500  18.2500  63.0000 Du        
   2804 ****        23.2500  18.2500  63.2500 Du        
   2805 ****        23.2500  18.2500  63.5000 Du        
   2806 ****        23.2500  18.2500  63.7500 Du        
   2807 ****        23.2500  18.5000  62.5000 Du        
   2808 ****        23.2500  18.5000  62.7500 Du        
   2809 ****        23.2500  18.5000  63.0000 Du        
   2810 ****        23.2500  18.5000  63.2500 Du        
   2811 ****        23.2500  18.5000  63.5000 Du        
   2812 ****        23.2500  18.5000  63.7500 Du        
   2813 ****        23.2500  18.5000  64.0000 Du        
   2814 ****        23.2500  18.7500  62.0000 Du        
   2815 ****        23.2500  18.7500  62.2500 Du        
   2816 ****        23.2500  18.7500  62.5000 Du        
   2817 ****        23.2500  18.7500  62.7500 Du        
   2818 ****        23.2500  18.7500  63.0000 Du        
   2819 ****        23.2500  18.7500  63.2500 Du        
   2820 ****        23.2500  18.7500  63.5000 Du        
   2821 ****        23.2500  18.7500  63.7500 Du        
   2822 ****        23.2500  18.7500  64.0000 Du        
   2823 ****        23.2500  18.7500  64.2500 Du        
   2824 ****        23.2500  19.0000  61.7500 Du        
   2825 ****        23.2500  19.0000  62.0000 Du        
   2826 ****        23.2500  19.0000  62.2500 Du        
   2827 ****        23.2500  19.0000  62.5000 Du        
   2828 ****        23.2500  19.0000  62.7500 Du        
   2829 ****        23.2500  19.0000  63.0000 Du        
   2830 ****        23.2500  19.0000  63.2500 Du        
   2831 ****        23.2500  19.0000  63.5000 Du        
   2832 ****        23.2500  19.0000  63.7500 Du        
   2833 ****        23.2500  19.0000  64.0000 Du        
   2834 ****        23.2500  19.0000  64.2500 Du        
   2835 ****        23.2500  19.0000  64.5000 Du        
   2836 ****        23.2500  19.2500  61.7500 Du        
   2837 ****        23.2500  19.2500  62.0000 Du        
   2838 ****        23.2500  19.2500  62.2500 Du        
   2839 ****        23.2500  19.2500  62.5000 Du        
   2840 ****        23.2500  19.2500  62.7500 Du        
   2841 ****        23.2500  19.2500  63.0000 Du        
   2842 ****        23.2500  19.2500  63.2500 Du        
   2843 ****        23.2500  19.2500  63.5000 Du        
   2844 ****        23.2500  19.2500  63.7500 Du        
   2845 ****        23.2500  19.2500  64.0000 Du        
   2846 ****        23.2500  19.2500  64.2500 Du        
   2847 ****        23.2500  19.2500  64.5000 Du        
   2848 ****        23.2500  19.2500  64.7500 Du        
   2849 ****        23.2500  19.5000  62.0000 Du        
   2850 ****        23.2500  19.5000  62.2500 Du        
   2851 ****        23.2500  19.5000  62.5000 Du        
   2852 ****        23.2500  19.5000  62.7500 Du        
   2853 ****        23.2500  19.5000  63.0000 Du        
   2854 ****        23.2500  19.5000  63.2500 Du        
   2855 ****        23.2500  19.5000  63.5000 Du        
   2856 ****        23.2500  19.5000  63.7500 Du        
   2857 ****        23.2500  19.5000  64.0000 Du        
   2858 ****        23.2500  19.5000  64.2500 Du        
   2859 ****        23.2500  19.5000  64.5000 Du        
   2860 ****        23.2500  19.5000  64.7500 Du        
   2861 ****        23.2500  19.5000  65.0000 Du        
   2862 ****        23.2500  19.7500  62.0000 Du        
   2863 ****        23.2500  19.7500  62.2500 Du        
   2864 ****        23.2500  19.7500  62.5000 Du        
   2865 ****        23.2500  19.7500  62.7500 Du        
   2866 ****        23.2500  19.7500  63.0000 Du        
   2867 ****        23.2500  19.7500  63.2500 Du        
   2868 ****        23.2500  19.7500  63.5000 Du        
   2869 ****        23.2500  19.7500  63.7500 Du        
   2870 ****        23.2500  19.7500  64.0000 Du        
   2871 ****        23.2500  19.7500  64.2500 Du        
   2872 ****        23.2500  19.7500  64.5000 Du        
   2873 ****        23.2500  19.7500  64.7500 Du        
   2874 ****        23.2500  19.7500  65.0000 Du        
   2875 ****        23.2500  19.7500  65.2500 Du        
   2876 ****        23.2500  20.0000  62.2500 Du        
   2877 ****        23.2500  20.0000  62.5000 Du        
   2878 ****        23.2500  20.0000  62.7500 Du        
   2879 ****        23.2500  20.0000  63.0000 Du        
   2880 ****        23.2500  20.0000  63.2500 Du        
   2881 ****        23.2500  20.0000  63.5000 Du        
   2882 ****        23.2500  20.0000  63.7500 Du        
   2883 ****        23.2500  20.0000  64.0000 Du        
   2884 ****        23.2500  20.0000  64.2500 Du        
   2885 ****        23.2500  20.0000  64.5000 Du        
   2886 ****        23.2500  20.0000  64.7500 Du        
   2887 ****        23.2500  20.0000  65.0000 Du        
   2888 ****        23.2500  20.0000  65.2500 Du        
   2889 ****        23.2500  20.2500  62.2500 Du        
   2890 ****        23.2500  20.2500  62.5000 Du        
   2891 ****        23.2500  20.2500  62.7500 Du        
   2892 ****        23.2500  20.2500  63.0000 Du        
   2893 ****        23.2500  20.2500  63.2500 Du        
   2894 ****        23.2500  20.2500  63.5000 Du        
   2895 ****        23.2500  20.2500  63.7500 Du        
   2896 ****        23.2500  20.2500  64.0000 Du        
   2897 ****        23.2500  20.2500  64.2500 Du        
   2898 ****        23.2500  20.2500  64.5000 Du        
   2899 ****        23.2500  20.2500  64.7500 Du        
   2900 ****        23.2500  20.2500  65.0000 Du        
   2901 ****        23.2500  20.5000  62.2500 Du        
   2902 ****        23.2500  20.5000  62.5000 Du        
   2903 ****        23.2500  20.5000  62.7500 Du        
   2904 ****        23.2500  20.5000  63.0000 Du        
   2905 ****        23.2500  20.5000  63.2500 Du        
   2906 ****        23.2500  20.5000  63.5000 Du        
   2907 ****        23.2500  20.5000  63.7500 Du        
   2908 ****        23.2500  20.5000  64.0000 Du        
   2909 ****        23.2500  20.5000  64.2500 Du        
   2910 ****        23.2500  20.5000  64.5000 Du        
   2911 ****        23.2500  20.7500  62.2500 Du        
   2912 ****        23.2500  20.7500  62.5000 Du        
   2913 ****        23.2500  20.7500  62.7500 Du        
   2914 ****        23.2500  20.7500  63.0000 Du        
   2915 ****        23.2500  20.7500  63.2500 Du        
   2916 ****        23.2500  20.7500  63.5000 Du        
   2917 ****        23.2500  20.7500  63.7500 Du        
   2918 ****        23.2500  20.7500  64.0000 Du        
   2919 ****        23.2500  20.7500  64.2500 Du        
   2920 ****        23.2500  21.0000  62.2500 Du        
   2921 ****        23.2500  21.0000  62.5000 Du        
   2922 ****        23.2500  21.0000  62.7500 Du        
   2923 ****        23.2500  21.0000  63.0000 Du        
   2924 ****        23.2500  21.0000  63.2500 Du        
   2925 ****        23.2500  21.0000  63.5000 Du        
   2926 ****        23.2500  21.0000  63.7500 Du        
   2927 ****        23.2500  21.0000  64.0000 Du        
   2928 ****        23.2500  21.2500  62.2500 Du        
   2929 ****        23.2500  21.2500  62.5000 Du        
   2930 ****        23.2500  21.2500  62.7500 Du        
   2931 ****        23.2500  21.2500  63.0000 Du        
   2932 ****        23.2500  21.2500  63.2500 Du        
   2933 ****        23.2500  21.2500  63.5000 Du        
   2934 ****        23.2500  21.2500  63.7500 Du        
   2935 ****        23.2500  21.5000  62.2500 Du        
   2936 ****        23.2500  21.5000  62.5000 Du        
   2937 ****        23.2500  21.5000  62.7500 Du        
   2938 ****        23.2500  21.5000  63.0000 Du        
   2939 ****        23.2500  21.5000  63.2500 Du        
   2940 ****        23.2500  21.5000  63.5000 Du        
   2941 ****        23.2500  21.7500  62.0000 Du        
   2942 ****        23.2500  21.7500  62.2500 Du        
   2943 ****        23.2500  21.7500  62.5000 Du        
   2944 ****        23.2500  21.7500  62.7500 Du        
   2945 ****        23.2500  21.7500  63.0000 Du        
   2946 ****        23.2500  21.7500  63.2500 Du        
   2947 ****        23.2500  21.7500  63.5000 Du        
   2948 ****        23.2500  22.0000  62.0000 Du        
   2949 ****        23.2500  22.0000  62.2500 Du        
   2950 ****        23.2500  22.0000  62.5000 Du        
   2951 ****        23.2500  22.0000  62.7500 Du        
   2952 ****        23.2500  22.0000  63.0000 Du        
   2953 ****        23.2500  22.0000  63.2500 Du        
   2954 ****        23.2500  22.2500  61.7500 Du        
   2955 ****        23.2500  22.2500  62.0000 Du        
   2956 ****        23.2500  22.2500  62.2500 Du        
   2957 ****        23.2500  22.2500  62.5000 Du        
   2958 ****        23.2500  22.2500  62.7500 Du        
   2959 ****        23.2500  22.2500  63.0000 Du        
   2960 ****        23.2500  22.5000  61.5000 Du        
   2961 ****        23.2500  22.5000  61.7500 Du        
   2962 ****        23.2500  22.5000  62.0000 Du        
   2963 ****        23.2500  22.5000  62.2500 Du        
   2964 ****        23.2500  22.5000  62.5000 Du        
   2965 ****        23.2500  22.5000  62.7500 Du        
   2966 ****        23.2500  22.5000  63.0000 Du        
   2967 ****        23.2500  22.7500  61.2500 Du        
   2968 ****        23.2500  22.7500  61.5000 Du        
   2969 ****        23.2500  22.7500  61.7500 Du        
   2970 ****        23.2500  22.7500  62.0000 Du        
   2971 ****        23.2500  22.7500  62.2500 Du        
   2972 ****        23.2500  22.7500  62.5000 Du        
   2973 ****        23.2500  22.7500  62.7500 Du        
   2974 ****        23.2500  23.0000  60.7500 Du        
   2975 ****        23.2500  23.0000  61.0000 Du        
   2976 ****        23.2500  23.0000  61.2500 Du        
   2977 ****        23.2500  23.0000  61.5000 Du        
   2978 ****        23.2500  23.0000  61.7500 Du        
   2979 ****        23.2500  23.0000  62.0000 Du        
   2980 ****        23.2500  23.0000  62.2500 Du        
   2981 ****        23.2500  23.0000  62.5000 Du        
   2982 ****        23.2500  23.2500  60.7500 Du        
   2983 ****        23.2500  23.2500  61.0000 Du        
   2984 ****        23.2500  23.2500  61.2500 Du        
   2985 ****        23.2500  23.2500  61.5000 Du        
   2986 ****        23.2500  23.2500  61.7500 Du        
   2987 ****        23.2500  23.2500  62.0000 Du        
   2988 ****        23.2500  23.2500  62.2500 Du        
   2989 ****        23.2500  23.2500  62.5000 Du        
   2990 ****        23.2500  23.5000  61.2500 Du        
   2991 ****        23.2500  23.5000  61.5000 Du        
   2992 ****        23.2500  23.5000  61.7500 Du        
   2993 ****        23.2500  23.5000  62.0000 Du        
   2994 ****        23.2500  23.5000  62.2500 Du        
   2995 ****        23.2500  23.7500  61.7500 Du        
   2996 ****        23.2500  23.7500  62.0000 Du        
   2997 ****        23.2500  23.7500  62.2500 Du        
   2998 ****        23.2500  32.2500  60.0000 Du        
   2999 ****        23.2500  32.2500  60.2500 Du        
   3000 ****        23.2500  32.5000  59.5000 Du        
   3001 ****        23.2500  32.5000  59.7500 Du        
   3002 ****        23.2500  32.5000  60.0000 Du        
   3003 ****        23.2500  32.5000  60.2500 Du        
   3004 ****        23.2500  32.7500  58.7500 Du        
   3005 ****        23.2500  32.7500  59.0000 Du        
   3006 ****        23.2500  32.7500  59.2500 Du        
   3007 ****        23.2500  32.7500  59.5000 Du        
   3008 ****        23.2500  32.7500  59.7500 Du        
   3009 ****        23.2500  32.7500  60.0000 Du        
   3010 ****        23.2500  32.7500  60.2500 Du        
   3011 ****        23.2500  33.0000  58.5000 Du        
   3012 ****        23.2500  33.0000  58.7500 Du        
   3013 ****        23.2500  33.0000  59.0000 Du        
   3014 ****        23.2500  33.0000  59.2500 Du        
   3015 ****        23.2500  33.0000  59.5000 Du        
   3016 ****        23.2500  33.0000  59.7500 Du        
   3017 ****        23.2500  33.0000  60.0000 Du        
   3018 ****        23.2500  33.0000  60.2500 Du        
   3019 ****        23.2500  33.2500  58.5000 Du        
   3020 ****        23.2500  33.2500  58.7500 Du        
   3021 ****        23.2500  33.2500  59.0000 Du        
   3022 ****        23.2500  33.2500  59.2500 Du        
   3023 ****        23.2500  33.2500  59.5000 Du        
   3024 ****        23.2500  33.2500  59.7500 Du        
   3025 ****        23.2500  33.2500  60.0000 Du        
   3026 ****        23.2500  33.2500  60.2500 Du        
   3027 ****        23.2500  33.5000  58.5000 Du        
   3028 ****        23.2500  33.5000  58.7500 Du        
   3029 ****        23.2500  33.5000  59.0000 Du        
   3030 ****        23.2500  33.5000  59.2500 Du        
   3031 ****        23.2500  33.5000  59.5000 Du        
   3032 ****        23.2500  33.5000  59.7500 Du        
   3033 ****        23.2500  33.5000  60.0000 Du        
   3034 ****        23.2500  33.5000  60.2500 Du        
   3035 ****        23.2500  33.7500  58.5000 Du        
   3036 ****        23.2500  33.7500  58.7500 Du        
   3037 ****        23.2500  33.7500  59.0000 Du        
   3038 ****        23.2500  33.7500  59.2500 Du        
   3039 ****        23.2500  33.7500  59.5000 Du        
   3040 ****        23.2500  33.7500  59.7500 Du        
   3041 ****        23.2500  33.7500  60.0000 Du        
   3042 ****        23.2500  33.7500  60.2500 Du        
   3043 ****        23.2500  34.0000  58.7500 Du        
   3044 ****        23.2500  34.0000  59.0000 Du        
   3045 ****        23.2500  34.0000  59.2500 Du        
   3046 ****        23.2500  34.0000  59.5000 Du        
   3047 ****        23.2500  34.0000  59.7500 Du        
   3048 ****        23.2500  34.0000  60.0000 Du        
   3049 ****        23.2500  34.0000  60.2500 Du        
   3050 ****        23.2500  34.2500  59.0000 Du        
   3051 ****        23.2500  34.2500  59.2500 Du        
   3052 ****        23.2500  34.2500  59.5000 Du        
   3053 ****        23.2500  34.2500  59.7500 Du        
   3054 ****        23.2500  34.2500  60.0000 Du        
   3055 ****        23.2500  34.2500  60.2500 Du        
   3056 ****        23.2500  34.5000  59.0000 Du        
   3057 ****        23.2500  34.5000  59.2500 Du        
   3058 ****        23.2500  34.5000  59.5000 Du        
   3059 ****        23.2500  34.5000  59.7500 Du        
   3060 ****        23.2500  34.5000  60.0000 Du        
   3061 ****        23.2500  34.7500  59.2500 Du        
   3062 ****        23.2500  34.7500  59.7500 Du        
   3063 ****        23.2500  44.5000  57.0000 Du        
   3064 ****        23.2500  44.7500  56.2500 Du        
   3065 ****        23.2500  44.7500  56.5000 Du        
   3066 ****        23.2500  44.7500  56.7500 Du        
   3067 ****        23.2500  44.7500  57.0000 Du        
   3068 ****        23.2500  44.7500  57.2500 Du        
   3069 ****        23.2500  45.0000  55.7500 Du        
   3070 ****        23.2500  45.0000  56.0000 Du        
   3071 ****        23.2500  45.0000  56.2500 Du        
   3072 ****        23.2500  45.0000  56.5000 Du        
   3073 ****        23.2500  45.0000  56.7500 Du        
   3074 ****        23.2500  45.0000  57.0000 Du        
   3075 ****        23.2500  45.0000  57.2500 Du        
   3076 ****        23.2500  45.2500  56.0000 Du        
   3077 ****        23.2500  45.2500  56.2500 Du        
   3078 ****        23.2500  45.2500  56.5000 Du        
   3079 ****        23.2500  45.2500  56.7500 Du        
   3080 ****        23.2500  45.2500  57.0000 Du        
   3081 ****        23.2500  45.2500  57.2500 Du        
   3082 ****        23.2500  45.5000  56.5000 Du        
   3083 ****        23.2500  45.5000  56.7500 Du        
   3084 ****        23.2500  45.5000  57.0000 Du        
   3085 ****        23.2500  45.7500  56.7500 Du        
   3086 ****        23.2500  45.7500  57.0000 Du        
   3087 ****        23.5000  18.0000  63.2500 Du        
   3088 ****        23.5000  18.2500  63.0000 Du        
   3089 ****        23.5000  18.2500  63.2500 Du        
   3090 ****        23.5000  18.2500  63.5000 Du        
   3091 ****        23.5000  18.2500  63.7500 Du        
   3092 ****        23.5000  18.5000  62.7500 Du        
   3093 ****        23.5000  18.5000  63.0000 Du        
   3094 ****        23.5000  18.5000  63.2500 Du        
   3095 ****        23.5000  18.5000  63.5000 Du        
   3096 ****        23.5000  18.5000  63.7500 Du        
   3097 ****        23.5000  18.5000  64.0000 Du        
   3098 ****        23.5000  18.7500  62.2500 Du        
   3099 ****        23.5000  18.7500  62.5000 Du        
   3100 ****        23.5000  18.7500  62.7500 Du        
   3101 ****        23.5000  18.7500  63.0000 Du        
   3102 ****        23.5000  18.7500  63.2500 Du        
   3103 ****        23.5000  18.7500  63.5000 Du        
   3104 ****        23.5000  18.7500  63.7500 Du        
   3105 ****        23.5000  18.7500  64.0000 Du        
   3106 ****        23.5000  18.7500  64.2500 Du        
   3107 ****        23.5000  19.0000  62.0000 Du        
   3108 ****        23.5000  19.0000  62.2500 Du        
   3109 ****        23.5000  19.0000  62.5000 Du        
   3110 ****        23.5000  19.0000  62.7500 Du        
   3111 ****        23.5000  19.0000  63.0000 Du        
   3112 ****        23.5000  19.0000  63.2500 Du        
   3113 ****        23.5000  19.0000  63.5000 Du        
   3114 ****        23.5000  19.0000  63.7500 Du        
   3115 ****        23.5000  19.0000  64.0000 Du        
   3116 ****        23.5000  19.0000  64.2500 Du        
   3117 ****        23.5000  19.0000  64.5000 Du        
   3118 ****        23.5000  19.0000  64.7500 Du        
   3119 ****        23.5000  19.2500  61.7500 Du        
   3120 ****        23.5000  19.2500  62.0000 Du        
   3121 ****        23.5000  19.2500  62.2500 Du        
   3122 ****        23.5000  19.2500  62.5000 Du        
   3123 ****        23.5000  19.2500  62.7500 Du        
   3124 ****        23.5000  19.2500  63.0000 Du        
   3125 ****        23.5000  19.2500  63.2500 Du        
   3126 ****        23.5000  19.2500  63.5000 Du        
   3127 ****        23.5000  19.2500  63.7500 Du        
   3128 ****        23.5000  19.2500  64.0000 Du        
   3129 ****        23.5000  19.2500  64.2500 Du        
   3130 ****        23.5000  19.2500  64.5000 Du        
   3131 ****        23.5000  19.2500  64.7500 Du        
   3132 ****        23.5000  19.2500  65.0000 Du        
   3133 ****        23.5000  19.5000  61.7500 Du        
   3134 ****        23.5000  19.5000  62.0000 Du        
   3135 ****        23.5000  19.5000  62.2500 Du        
   3136 ****        23.5000  19.5000  62.5000 Du        
   3137 ****        23.5000  19.5000  62.7500 Du        
   3138 ****        23.5000  19.5000  63.0000 Du        
   3139 ****        23.5000  19.5000  63.2500 Du        
   3140 ****        23.5000  19.5000  63.5000 Du        
   3141 ****        23.5000  19.5000  63.7500 Du        
   3142 ****        23.5000  19.5000  64.0000 Du        
   3143 ****        23.5000  19.5000  64.2500 Du        
   3144 ****        23.5000  19.5000  64.5000 Du        
   3145 ****        23.5000  19.5000  64.7500 Du        
   3146 ****        23.5000  19.5000  65.0000 Du        
   3147 ****        23.5000  19.5000  65.2500 Du        
   3148 ****        23.5000  19.5000  65.5000 Du        
   3149 ****        23.5000  19.7500  62.0000 Du        
   3150 ****        23.5000  19.7500  62.2500 Du        
   3151 ****        23.5000  19.7500  62.5000 Du        
   3152 ****        23.5000  19.7500  62.7500 Du        
   3153 ****        23.5000  19.7500  63.0000 Du        
   3154 ****        23.5000  19.7500  63.2500 Du        
   3155 ****        23.5000  19.7500  63.5000 Du        
   3156 ****        23.5000  19.7500  63.7500 Du        
   3157 ****        23.5000  19.7500  64.0000 Du        
   3158 ****        23.5000  19.7500  64.2500 Du        
   3159 ****        23.5000  19.7500  64.5000 Du        
   3160 ****        23.5000  19.7500  64.7500 Du        
   3161 ****        23.5000  19.7500  65.0000 Du        
   3162 ****        23.5000  19.7500  65.2500 Du        
   3163 ****        23.5000  19.7500  65.5000 Du        
   3164 ****        23.5000  19.7500  65.7500 Du        
   3165 ****        23.5000  20.0000  62.0000 Du        
   3166 ****        23.5000  20.0000  62.2500 Du        
   3167 ****        23.5000  20.0000  62.5000 Du        
   3168 ****        23.5000  20.0000  62.7500 Du        
   3169 ****        23.5000  20.0000  63.0000 Du        
   3170 ****        23.5000  20.0000  63.2500 Du        
   3171 ****        23.5000  20.0000  63.5000 Du        
   3172 ****        23.5000  20.0000  63.7500 Du        
   3173 ****        23.5000  20.0000  64.0000 Du        
   3174 ****        23.5000  20.0000  64.2500 Du        
   3175 ****        23.5000  20.0000  64.5000 Du        
   3176 ****        23.5000  20.0000  64.7500 Du        
   3177 ****        23.5000  20.0000  65.0000 Du        
   3178 ****        23.5000  20.0000  65.2500 Du        
   3179 ****        23.5000  20.0000  65.5000 Du        
   3180 ****        23.5000  20.2500  62.0000 Du        
   3181 ****        23.5000  20.2500  62.2500 Du        
   3182 ****        23.5000  20.2500  62.5000 Du        
   3183 ****        23.5000  20.2500  62.7500 Du        
   3184 ****        23.5000  20.2500  63.0000 Du        
   3185 ****        23.5000  20.2500  63.2500 Du        
   3186 ****        23.5000  20.2500  63.5000 Du        
   3187 ****        23.5000  20.2500  63.7500 Du        
   3188 ****        23.5000  20.2500  64.0000 Du        
   3189 ****        23.5000  20.2500  64.2500 Du        
   3190 ****        23.5000  20.2500  64.5000 Du        
   3191 ****        23.5000  20.2500  64.7500 Du        
   3192 ****        23.5000  20.2500  65.0000 Du        
   3193 ****        23.5000  20.5000  62.2500 Du        
   3194 ****        23.5000  20.5000  62.5000 Du        
   3195 ****        23.5000  20.5000  62.7500 Du        
   3196 ****        23.5000  20.5000  63.0000 Du        
   3197 ****        23.5000  20.5000  63.2500 Du        
   3198 ****        23.5000  20.5000  63.5000 Du        
   3199 ****        23.5000  20.5000  63.7500 Du        
   3200 ****        23.5000  20.5000  64.0000 Du        
   3201 ****        23.5000  20.5000  64.2500 Du        
   3202 ****        23.5000  20.5000  64.5000 Du        
   3203 ****        23.5000  20.5000  64.7500 Du        
   3204 ****        23.5000  20.7500  62.2500 Du        
   3205 ****        23.5000  20.7500  62.5000 Du        
   3206 ****        23.5000  20.7500  62.7500 Du        
   3207 ****        23.5000  20.7500  63.0000 Du        
   3208 ****        23.5000  20.7500  63.2500 Du        
   3209 ****        23.5000  20.7500  63.5000 Du        
   3210 ****        23.5000  20.7500  63.7500 Du        
   3211 ****        23.5000  20.7500  64.0000 Du        
   3212 ****        23.5000  20.7500  64.2500 Du        
   3213 ****        23.5000  21.0000  62.2500 Du        
   3214 ****        23.5000  21.0000  62.5000 Du        
   3215 ****        23.5000  21.0000  62.7500 Du        
   3216 ****        23.5000  21.0000  63.0000 Du        
   3217 ****        23.5000  21.0000  63.2500 Du        
   3218 ****        23.5000  21.0000  63.5000 Du        
   3219 ****        23.5000  21.0000  63.7500 Du        
   3220 ****        23.5000  21.0000  64.0000 Du        
   3221 ****        23.5000  21.2500  62.2500 Du        
   3222 ****        23.5000  21.2500  62.5000 Du        
   3223 ****        23.5000  21.2500  62.7500 Du        
   3224 ****        23.5000  21.2500  63.0000 Du        
   3225 ****        23.5000  21.2500  63.2500 Du        
   3226 ****        23.5000  21.2500  63.5000 Du        
   3227 ****        23.5000  21.2500  63.7500 Du        
   3228 ****        23.5000  21.5000  62.0000 Du        
   3229 ****        23.5000  21.5000  62.2500 Du        
   3230 ****        23.5000  21.5000  62.5000 Du        
   3231 ****        23.5000  21.5000  62.7500 Du        
   3232 ****        23.5000  21.5000  63.0000 Du        
   3233 ****        23.5000  21.5000  63.2500 Du        
   3234 ****        23.5000  21.5000  63.5000 Du        
   3235 ****        23.5000  21.7500  62.0000 Du        
   3236 ****        23.5000  21.7500  62.2500 Du        
   3237 ****        23.5000  21.7500  62.5000 Du        
   3238 ****        23.5000  21.7500  62.7500 Du        
   3239 ****        23.5000  21.7500  63.0000 Du        
   3240 ****        23.5000  21.7500  63.2500 Du        
   3241 ****        23.5000  22.0000  61.7500 Du        
   3242 ****        23.5000  22.0000  62.0000 Du        
   3243 ****        23.5000  22.0000  62.2500 Du        
   3244 ****        23.5000  22.0000  62.5000 Du        
   3245 ****        23.5000  22.0000  62.7500 Du        
   3246 ****        23.5000  22.0000  63.0000 Du        
   3247 ****        23.5000  22.0000  63.2500 Du        
   3248 ****        23.5000  22.2500  61.7500 Du        
   3249 ****        23.5000  22.2500  62.0000 Du        
   3250 ****        23.5000  22.2500  62.2500 Du        
   3251 ****        23.5000  22.2500  62.5000 Du        
   3252 ****        23.5000  22.2500  62.7500 Du        
   3253 ****        23.5000  22.2500  63.0000 Du        
   3254 ****        23.5000  22.5000  61.5000 Du        
   3255 ****        23.5000  22.5000  61.7500 Du        
   3256 ****        23.5000  22.5000  62.0000 Du        
   3257 ****        23.5000  22.5000  62.2500 Du        
   3258 ****        23.5000  22.5000  62.5000 Du        
   3259 ****        23.5000  22.5000  62.7500 Du        
   3260 ****        23.5000  22.7500  61.0000 Du        
   3261 ****        23.5000  22.7500  61.2500 Du        
   3262 ****        23.5000  22.7500  61.5000 Du        
   3263 ****        23.5000  22.7500  61.7500 Du        
   3264 ****        23.5000  22.7500  62.0000 Du        
   3265 ****        23.5000  22.7500  62.2500 Du        
   3266 ****        23.5000  22.7500  62.5000 Du        
   3267 ****        23.5000  23.0000  60.2500 Du        
   3268 ****        23.5000  23.0000  60.5000 Du        
   3269 ****        23.5000  23.0000  60.7500 Du        
   3270 ****        23.5000  23.0000  61.0000 Du        
   3271 ****        23.5000  23.0000  61.2500 Du        
   3272 ****        23.5000  23.0000  61.5000 Du        
   3273 ****        23.5000  23.0000  61.7500 Du        
   3274 ****        23.5000  23.0000  62.0000 Du        
   3275 ****        23.5000  23.0000  62.2500 Du        
   3276 ****        23.5000  23.0000  62.5000 Du        
   3277 ****        23.5000  23.2500  60.0000 Du        
   3278 ****        23.5000  23.2500  60.2500 Du        
   3279 ****        23.5000  23.2500  60.5000 Du        
   3280 ****        23.5000  23.2500  60.7500 Du        
   3281 ****        23.5000  23.2500  61.0000 Du        
   3282 ****        23.5000  23.2500  61.2500 Du        
   3283 ****        23.5000  23.2500  61.5000 Du        
   3284 ****        23.5000  23.2500  61.7500 Du        
   3285 ****        23.5000  23.2500  62.0000 Du        
   3286 ****        23.5000  23.2500  62.2500 Du        
   3287 ****        23.5000  23.5000  60.7500 Du        
   3288 ****        23.5000  23.5000  61.0000 Du        
   3289 ****        23.5000  23.5000  61.2500 Du        
   3290 ****        23.5000  23.5000  61.5000 Du        
   3291 ****        23.5000  23.5000  61.7500 Du        
   3292 ****        23.5000  23.5000  62.0000 Du        
   3293 ****        23.5000  23.5000  62.2500 Du        
   3294 ****        23.5000  23.7500  61.5000 Du        
   3295 ****        23.5000  23.7500  61.7500 Du        
   3296 ****        23.5000  23.7500  62.0000 Du        
   3297 ****        23.5000  23.7500  62.2500 Du        
   3298 ****        23.5000  32.5000  59.7500 Du        
   3299 ****        23.5000  32.5000  60.0000 Du        
   3300 ****        23.5000  32.5000  60.2500 Du        
   3301 ****        23.5000  32.7500  59.0000 Du        
   3302 ****        23.5000  32.7500  59.2500 Du        
   3303 ****        23.5000  32.7500  59.5000 Du        
   3304 ****        23.5000  32.7500  59.7500 Du        
   3305 ****        23.5000  32.7500  60.0000 Du        
   3306 ****        23.5000  32.7500  60.2500 Du        
   3307 ****        23.5000  33.0000  58.5000 Du        
   3308 ****        23.5000  33.0000  58.7500 Du        
   3309 ****        23.5000  33.0000  59.0000 Du        
   3310 ****        23.5000  33.0000  59.2500 Du        
   3311 ****        23.5000  33.0000  59.5000 Du        
   3312 ****        23.5000  33.0000  59.7500 Du        
   3313 ****        23.5000  33.0000  60.0000 Du        
   3314 ****        23.5000  33.0000  60.2500 Du        
   3315 ****        23.5000  33.2500  58.5000 Du        
   3316 ****        23.5000  33.2500  58.7500 Du        
   3317 ****        23.5000  33.2500  59.0000 Du        
   3318 ****        23.5000  33.2500  59.2500 Du        
   3319 ****        23.5000  33.2500  59.5000 Du        
   3320 ****        23.5000  33.2500  59.7500 Du        
   3321 ****        23.5000  33.2500  60.0000 Du        
   3322 ****        23.5000  33.2500  60.2500 Du        
   3323 ****        23.5000  33.5000  58.5000 Du        
   3324 ****        23.5000  33.5000  58.7500 Du        
   3325 ****        23.5000  33.5000  59.0000 Du        
   3326 ****        23.5000  33.5000  59.2500 Du        
   3327 ****        23.5000  33.5000  59.5000 Du        
   3328 ****        23.5000  33.5000  59.7500 Du        
   3329 ****        23.5000  33.5000  60.0000 Du        
   3330 ****        23.5000  33.5000  60.2500 Du        
   3331 ****        23.5000  33.7500  58.7500 Du        
   3332 ****        23.5000  33.7500  59.0000 Du        
   3333 ****        23.5000  33.7500  59.2500 Du        
   3334 ****        23.5000  33.7500  59.5000 Du        
   3335 ****        23.5000  33.7500  59.7500 Du        
   3336 ****        23.5000  33.7500  60.0000 Du        
   3337 ****        23.5000  33.7500  60.2500 Du        
   3338 ****        23.5000  34.0000  58.7500 Du        
   3339 ****        23.5000  34.0000  59.0000 Du        
   3340 ****        23.5000  34.0000  59.2500 Du        
   3341 ****        23.5000  34.0000  59.5000 Du        
   3342 ****        23.5000  34.0000  59.7500 Du        
   3343 ****        23.5000  34.0000  60.0000 Du        
   3344 ****        23.5000  34.0000  60.2500 Du        
   3345 ****        23.5000  34.2500  59.0000 Du        
   3346 ****        23.5000  34.2500  59.2500 Du        
   3347 ****        23.5000  34.2500  59.5000 Du        
   3348 ****        23.5000  34.2500  59.7500 Du        
   3349 ****        23.5000  34.2500  60.0000 Du        
   3350 ****        23.5000  34.2500  60.2500 Du        
   3351 ****        23.5000  34.5000  59.2500 Du        
   3352 ****        23.5000  44.7500  56.7500 Du        
   3353 ****        23.5000  44.7500  57.0000 Du        
   3354 ****        23.5000  45.0000  56.2500 Du        
   3355 ****        23.5000  45.0000  56.5000 Du        
   3356 ****        23.5000  45.0000  56.7500 Du        
   3357 ****        23.5000  45.0000  57.0000 Du        
   3358 ****        23.5000  45.2500  56.5000 Du        
   3359 ****        23.5000  45.2500  56.7500 Du        
   3360 ****        23.5000  45.2500  57.0000 Du        
   3361 ****        23.7500  18.2500  63.0000 Du        
   3362 ****        23.7500  18.2500  63.2500 Du        
   3363 ****        23.7500  18.2500  63.5000 Du        
   3364 ****        23.7500  18.5000  62.7500 Du        
   3365 ****        23.7500  18.5000  63.0000 Du        
   3366 ****        23.7500  18.5000  63.2500 Du        
   3367 ****        23.7500  18.5000  63.5000 Du        
   3368 ****        23.7500  18.5000  63.7500 Du        
   3369 ****        23.7500  18.5000  64.0000 Du        
   3370 ****        23.7500  18.7500  62.5000 Du        
   3371 ****        23.7500  18.7500  62.7500 Du        
   3372 ****        23.7500  18.7500  63.0000 Du        
   3373 ****        23.7500  18.7500  63.2500 Du        
   3374 ****        23.7500  18.7500  63.5000 Du        
   3375 ****        23.7500  18.7500  63.7500 Du        
   3376 ****        23.7500  18.7500  64.0000 Du        
   3377 ****        23.7500  18.7500  64.2500 Du        
   3378 ****        23.7500  19.0000  62.2500 Du        
   3379 ****        23.7500  19.0000  62.5000 Du        
   3380 ****        23.7500  19.0000  62.7500 Du        
   3381 ****        23.7500  19.0000  63.0000 Du        
   3382 ****        23.7500  19.0000  63.2500 Du        
   3383 ****        23.7500  19.0000  63.5000 Du        
   3384 ****        23.7500  19.0000  63.7500 Du        
   3385 ****        23.7500  19.0000  64.0000 Du        
   3386 ****        23.7500  19.0000  64.2500 Du        
   3387 ****        23.7500  19.0000  64.5000 Du        
   3388 ****        23.7500  19.0000  64.7500 Du        
   3389 ****        23.7500  19.2500  62.0000 Du        
   3390 ****        23.7500  19.2500  62.2500 Du        
   3391 ****        23.7500  19.2500  62.5000 Du        
   3392 ****        23.7500  19.2500  62.7500 Du        
   3393 ****        23.7500  19.2500  63.0000 Du        
   3394 ****        23.7500  19.2500  63.2500 Du        
   3395 ****        23.7500  19.2500  63.5000 Du        
   3396 ****        23.7500  19.2500  63.7500 Du        
   3397 ****        23.7500  19.2500  64.0000 Du        
   3398 ****        23.7500  19.2500  64.2500 Du        
   3399 ****        23.7500  19.2500  64.5000 Du        
   3400 ****        23.7500  19.2500  64.7500 Du        
   3401 ****        23.7500  19.2500  65.0000 Du        
   3402 ****        23.7500  19.2500  65.2500 Du        
   3403 ****        23.7500  19.5000  61.7500 Du        
   3404 ****        23.7500  19.5000  62.0000 Du        
   3405 ****        23.7500  19.5000  62.2500 Du        
   3406 ****        23.7500  19.5000  62.5000 Du        
   3407 ****        23.7500  19.5000  62.7500 Du        
   3408 ****        23.7500  19.5000  63.0000 Du        
   3409 ****        23.7500  19.5000  63.2500 Du        
   3410 ****        23.7500  19.5000  63.5000 Du        
   3411 ****        23.7500  19.5000  63.7500 Du        
   3412 ****        23.7500  19.5000  64.0000 Du        
   3413 ****        23.7500  19.5000  64.2500 Du        
   3414 ****        23.7500  19.5000  64.5000 Du        
   3415 ****        23.7500  19.5000  64.7500 Du        
   3416 ****        23.7500  19.5000  65.0000 Du        
   3417 ****        23.7500  19.5000  65.2500 Du        
   3418 ****        23.7500  19.5000  65.5000 Du        
   3419 ****        23.7500  19.5000  65.7500 Du        
   3420 ****        23.7500  19.7500  61.7500 Du        
   3421 ****        23.7500  19.7500  62.0000 Du        
   3422 ****        23.7500  19.7500  62.2500 Du        
   3423 ****        23.7500  19.7500  62.5000 Du        
   3424 ****        23.7500  19.7500  62.7500 Du        
   3425 ****        23.7500  19.7500  63.0000 Du        
   3426 ****        23.7500  19.7500  63.2500 Du        
   3427 ****        23.7500  19.7500  63.5000 Du        
   3428 ****        23.7500  19.7500  63.7500 Du        
   3429 ****        23.7500  19.7500  64.0000 Du        
   3430 ****        23.7500  19.7500  64.2500 Du        
   3431 ****        23.7500  19.7500  64.5000 Du        
   3432 ****        23.7500  19.7500  64.7500 Du        
   3433 ****        23.7500  19.7500  65.0000 Du        
   3434 ****        23.7500  19.7500  65.2500 Du        
   3435 ****        23.7500  19.7500  65.5000 Du        
   3436 ****        23.7500  19.7500  65.7500 Du        
   3437 ****        23.7500  19.7500  66.0000 Du        
   3438 ****        23.7500  20.0000  61.7500 Du        
   3439 ****        23.7500  20.0000  62.0000 Du        
   3440 ****        23.7500  20.0000  62.2500 Du        
   3441 ****        23.7500  20.0000  62.5000 Du        
   3442 ****        23.7500  20.0000  62.7500 Du        
   3443 ****        23.7500  20.0000  63.0000 Du        
   3444 ****        23.7500  20.0000  63.2500 Du        
   3445 ****        23.7500  20.0000  63.5000 Du        
   3446 ****        23.7500  20.0000  63.7500 Du        
   3447 ****        23.7500  20.0000  64.0000 Du        
   3448 ****        23.7500  20.0000  64.2500 Du        
   3449 ****        23.7500  20.0000  64.5000 Du        
   3450 ****        23.7500  20.0000  64.7500 Du        
   3451 ****        23.7500  20.0000  65.0000 Du        
   3452 ****        23.7500  20.0000  65.2500 Du        
   3453 ****        23.7500  20.0000  65.5000 Du        
   3454 ****        23.7500  20.0000  65.7500 Du        
   3455 ****        23.7500  20.2500  62.0000 Du        
   3456 ****        23.7500  20.2500  62.2500 Du        
   3457 ****        23.7500  20.2500  62.5000 Du        
   3458 ****        23.7500  20.2500  62.7500 Du        
   3459 ****        23.7500  20.2500  63.0000 Du        
   3460 ****        23.7500  20.2500  63.2500 Du        
   3461 ****        23.7500  20.2500  63.5000 Du        
   3462 ****        23.7500  20.2500  63.7500 Du        
   3463 ****        23.7500  20.2500  64.0000 Du        
   3464 ****        23.7500  20.2500  64.2500 Du        
   3465 ****        23.7500  20.2500  64.5000 Du        
   3466 ****        23.7500  20.2500  64.7500 Du        
   3467 ****        23.7500  20.2500  65.0000 Du        
   3468 ****        23.7500  20.2500  65.2500 Du        
   3469 ****        23.7500  20.5000  62.0000 Du        
   3470 ****        23.7500  20.5000  62.2500 Du        
   3471 ****        23.7500  20.5000  62.5000 Du        
   3472 ****        23.7500  20.5000  62.7500 Du        
   3473 ****        23.7500  20.5000  63.0000 Du        
   3474 ****        23.7500  20.5000  63.2500 Du        
   3475 ****        23.7500  20.5000  63.5000 Du        
   3476 ****        23.7500  20.5000  63.7500 Du        
   3477 ****        23.7500  20.5000  64.0000 Du        
   3478 ****        23.7500  20.5000  64.2500 Du        
   3479 ****        23.7500  20.5000  64.5000 Du        
   3480 ****        23.7500  20.5000  64.7500 Du        
   3481 ****        23.7500  20.7500  62.0000 Du        
   3482 ****        23.7500  20.7500  62.2500 Du        
   3483 ****        23.7500  20.7500  62.5000 Du        
   3484 ****        23.7500  20.7500  62.7500 Du        
   3485 ****        23.7500  20.7500  63.0000 Du        
   3486 ****        23.7500  20.7500  63.2500 Du        
   3487 ****        23.7500  20.7500  63.5000 Du        
   3488 ****        23.7500  20.7500  63.7500 Du        
   3489 ****        23.7500  20.7500  64.0000 Du        
   3490 ****        23.7500  20.7500  64.2500 Du        
   3491 ****        23.7500  21.0000  62.0000 Du        
   3492 ****        23.7500  21.0000  62.2500 Du        
   3493 ****        23.7500  21.0000  62.5000 Du        
   3494 ****        23.7500  21.0000  62.7500 Du        
   3495 ****        23.7500  21.0000  63.0000 Du        
   3496 ****        23.7500  21.0000  63.2500 Du        
   3497 ****        23.7500  21.0000  63.5000 Du        
   3498 ****        23.7500  21.0000  63.7500 Du        
   3499 ****        23.7500  21.0000  64.0000 Du        
   3500 ****        23.7500  21.2500  62.0000 Du        
   3501 ****        23.7500  21.2500  62.2500 Du        
   3502 ****        23.7500  21.2500  62.5000 Du        
   3503 ****        23.7500  21.2500  62.7500 Du        
   3504 ****        23.7500  21.2500  63.0000 Du        
   3505 ****        23.7500  21.2500  63.2500 Du        
   3506 ****        23.7500  21.2500  63.5000 Du        
   3507 ****        23.7500  21.2500  63.7500 Du        
   3508 ****        23.7500  21.5000  62.0000 Du        
   3509 ****        23.7500  21.5000  62.2500 Du        
   3510 ****        23.7500  21.5000  62.5000 Du        
   3511 ****        23.7500  21.5000  62.7500 Du        
   3512 ****        23.7500  21.5000  63.0000 Du        
   3513 ****        23.7500  21.5000  63.2500 Du        
   3514 ****        23.7500  21.5000  63.5000 Du        
   3515 ****        23.7500  21.7500  61.7500 Du        
   3516 ****        23.7500  21.7500  62.0000 Du        
   3517 ****        23.7500  21.7500  62.2500 Du        
   3518 ****        23.7500  21.7500  62.5000 Du        
   3519 ****        23.7500  21.7500  62.7500 Du        
   3520 ****        23.7500  21.7500  63.0000 Du        
   3521 ****        23.7500  21.7500  63.2500 Du        
   3522 ****        23.7500  21.7500  63.5000 Du        
   3523 ****        23.7500  22.0000  61.5000 Du        
   3524 ****        23.7500  22.0000  61.7500 Du        
   3525 ****        23.7500  22.0000  62.0000 Du        
   3526 ****        23.7500  22.0000  62.2500 Du        
   3527 ****        23.7500  22.0000  62.5000 Du        
   3528 ****        23.7500  22.0000  62.7500 Du        
   3529 ****        23.7500  22.0000  63.0000 Du        
   3530 ****        23.7500  22.0000  63.2500 Du        
   3531 ****        23.7500  22.2500  61.2500 Du        
   3532 ****        23.7500  22.2500  61.5000 Du        
   3533 ****        23.7500  22.2500  61.7500 Du        
   3534 ****        23.7500  22.2500  62.0000 Du        
   3535 ****        23.7500  22.2500  62.2500 Du        
   3536 ****        23.7500  22.2500  62.5000 Du        
   3537 ****        23.7500  22.2500  62.7500 Du        
   3538 ****        23.7500  22.2500  63.0000 Du        
   3539 ****        23.7500  22.5000  61.0000 Du        
   3540 ****        23.7500  22.5000  61.2500 Du        
   3541 ****        23.7500  22.5000  61.5000 Du        
   3542 ****        23.7500  22.5000  61.7500 Du        
   3543 ****        23.7500  22.5000  62.0000 Du        
   3544 ****        23.7500  22.5000  62.2500 Du        
   3545 ****        23.7500  22.5000  62.5000 Du        
   3546 ****        23.7500  22.5000  62.7500 Du        
   3547 ****        23.7500  22.7500  60.5000 Du        
   3548 ****        23.7500  22.7500  60.7500 Du        
   3549 ****        23.7500  22.7500  61.0000 Du        
   3550 ****        23.7500  22.7500  61.2500 Du        
   3551 ****        23.7500  22.7500  61.5000 Du        
   3552 ****        23.7500  22.7500  61.7500 Du        
   3553 ****        23.7500  22.7500  62.0000 Du        
   3554 ****        23.7500  22.7500  62.2500 Du        
   3555 ****        23.7500  22.7500  62.5000 Du        
   3556 ****        23.7500  23.0000  59.7500 Du        
   3557 ****        23.7500  23.0000  60.0000 Du        
   3558 ****        23.7500  23.0000  60.2500 Du        
   3559 ****        23.7500  23.0000  60.5000 Du        
   3560 ****        23.7500  23.0000  60.7500 Du        
   3561 ****        23.7500  23.0000  61.0000 Du        
   3562 ****        23.7500  23.0000  61.2500 Du        
   3563 ****        23.7500  23.0000  61.5000 Du        
   3564 ****        23.7500  23.0000  61.7500 Du        
   3565 ****        23.7500  23.0000  62.0000 Du        
   3566 ****        23.7500  23.0000  62.2500 Du        
   3567 ****        23.7500  23.0000  62.5000 Du        
   3568 ****        23.7500  23.2500  59.5000 Du        
   3569 ****        23.7500  23.2500  59.7500 Du        
   3570 ****        23.7500  23.2500  60.0000 Du        
   3571 ****        23.7500  23.2500  60.2500 Du        
   3572 ****        23.7500  23.2500  60.5000 Du        
   3573 ****        23.7500  23.2500  60.7500 Du        
   3574 ****        23.7500  23.2500  61.0000 Du        
   3575 ****        23.7500  23.2500  61.2500 Du        
   3576 ****        23.7500  23.2500  61.5000 Du        
   3577 ****        23.7500  23.2500  61.7500 Du        
   3578 ****        23.7500  23.2500  62.0000 Du        
   3579 ****        23.7500  23.2500  62.2500 Du        
   3580 ****        23.7500  23.5000  60.0000 Du        
   3581 ****        23.7500  23.5000  60.2500 Du        
   3582 ****        23.7500  23.5000  60.5000 Du        
   3583 ****        23.7500  23.5000  60.7500 Du        
   3584 ****        23.7500  23.5000  61.0000 Du        
   3585 ****        23.7500  23.5000  61.2500 Du        
   3586 ****        23.7500  23.5000  61.5000 Du        
   3587 ****        23.7500  23.5000  61.7500 Du        
   3588 ****        23.7500  23.5000  62.0000 Du        
   3589 ****        23.7500  23.5000  62.2500 Du        
   3590 ****        23.7500  23.7500  61.0000 Du        
   3591 ****        23.7500  23.7500  61.2500 Du        
   3592 ****        23.7500  23.7500  61.5000 Du        
   3593 ****        23.7500  23.7500  61.7500 Du        
   3594 ****        23.7500  23.7500  62.0000 Du        
   3595 ****        23.7500  23.7500  62.2500 Du        
   3596 ****        23.7500  24.0000  61.7500 Du        
   3597 ****        23.7500  24.0000  62.0000 Du        
   3598 ****        23.7500  32.5000  59.7500 Du        
   3599 ****        23.7500  32.5000  60.0000 Du        
   3600 ****        23.7500  32.5000  60.2500 Du        
   3601 ****        23.7500  32.7500  59.2500 Du        
   3602 ****        23.7500  32.7500  59.5000 Du        
   3603 ****        23.7500  32.7500  59.7500 Du        
   3604 ****        23.7500  32.7500  60.0000 Du        
   3605 ****        23.7500  32.7500  60.2500 Du        
   3606 ****        23.7500  33.0000  58.7500 Du        
   3607 ****        23.7500  33.0000  59.0000 Du        
   3608 ****        23.7500  33.0000  59.2500 Du        
   3609 ****        23.7500  33.0000  59.5000 Du        
   3610 ****        23.7500  33.0000  59.7500 Du        
   3611 ****        23.7500  33.0000  60.0000 Du        
   3612 ****        23.7500  33.0000  60.2500 Du        
   3613 ****        23.7500  33.2500  58.5000 Du        
   3614 ****        23.7500  33.2500  58.7500 Du        
   3615 ****        23.7500  33.2500  59.0000 Du        
   3616 ****        23.7500  33.2500  59.2500 Du        
   3617 ****        23.7500  33.2500  59.5000 Du        
   3618 ****        23.7500  33.2500  59.7500 Du        
   3619 ****        23.7500  33.2500  60.0000 Du        
   3620 ****        23.7500  33.2500  60.2500 Du        
   3621 ****        23.7500  33.5000  58.5000 Du        
   3622 ****        23.7500  33.5000  58.7500 Du        
   3623 ****        23.7500  33.5000  59.0000 Du        
   3624 ****        23.7500  33.5000  59.2500 Du        
   3625 ****        23.7500  33.5000  59.5000 Du        
   3626 ****        23.7500  33.5000  59.7500 Du        
   3627 ****        23.7500  33.5000  60.0000 Du        
   3628 ****        23.7500  33.5000  60.2500 Du        
   3629 ****        23.7500  33.7500  58.5000 Du        
   3630 ****        23.7500  33.7500  58.7500 Du        
   3631 ****        23.7500  33.7500  59.0000 Du        
   3632 ****        23.7500  33.7500  59.2500 Du        
   3633 ****        23.7500  33.7500  59.5000 Du        
   3634 ****        23.7500  33.7500  59.7500 Du        
   3635 ****        23.7500  33.7500  60.0000 Du        
   3636 ****        23.7500  33.7500  60.2500 Du        
   3637 ****        23.7500  34.0000  58.7500 Du        
   3638 ****        23.7500  34.0000  59.0000 Du        
   3639 ****        23.7500  34.0000  59.2500 Du        
   3640 ****        23.7500  34.0000  59.5000 Du        
   3641 ****        23.7500  34.0000  59.7500 Du        
   3642 ****        23.7500  34.0000  60.0000 Du        
   3643 ****        23.7500  34.0000  60.2500 Du        
   3644 ****        23.7500  34.2500  59.0000 Du        
   3645 ****        23.7500  34.2500  59.2500 Du        
   3646 ****        23.7500  34.2500  59.5000 Du        
   3647 ****        23.7500  34.2500  59.7500 Du        
   3648 ****        23.7500  34.2500  60.0000 Du        
   3649 ****        23.7500  34.2500  60.2500 Du        
   3650 ****        23.7500  34.5000  59.2500 Du        
   3651 ****        24.0000  18.5000  63.0000 Du        
   3652 ****        24.0000  18.5000  63.2500 Du        
   3653 ****        24.0000  18.5000  63.5000 Du        
   3654 ****        24.0000  18.5000  63.7500 Du        
   3655 ****        24.0000  18.7500  62.7500 Du        
   3656 ****        24.0000  18.7500  63.0000 Du        
   3657 ****        24.0000  18.7500  63.2500 Du        
   3658 ****        24.0000  18.7500  63.5000 Du        
   3659 ****        24.0000  18.7500  63.7500 Du        
   3660 ****        24.0000  18.7500  64.0000 Du        
   3661 ****        24.0000  18.7500  64.2500 Du        
   3662 ****        24.0000  19.0000  62.7500 Du        
   3663 ****        24.0000  19.0000  63.0000 Du        
   3664 ****        24.0000  19.0000  63.2500 Du        
   3665 ****        24.0000  19.0000  63.5000 Du        
   3666 ****        24.0000  19.0000  63.7500 Du        
   3667 ****        24.0000  19.0000  64.0000 Du        
   3668 ****        24.0000  19.0000  64.2500 Du        
   3669 ****        24.0000  19.0000  64.5000 Du        
   3670 ****        24.0000  19.0000  64.7500 Du        
   3671 ****        24.0000  19.2500  62.2500 Du        
   3672 ****        24.0000  19.2500  62.5000 Du        
   3673 ****        24.0000  19.2500  62.7500 Du        
   3674 ****        24.0000  19.2500  63.0000 Du        
   3675 ****        24.0000  19.2500  63.2500 Du        
   3676 ****        24.0000  19.2500  63.5000 Du        
   3677 ****        24.0000  19.2500  63.7500 Du        
   3678 ****        24.0000  19.2500  64.0000 Du        
   3679 ****        24.0000  19.2500  64.2500 Du        
   3680 ****        24.0000  19.2500  64.5000 Du        
   3681 ****        24.0000  19.2500  64.7500 Du        
   3682 ****        24.0000  19.2500  65.0000 Du        
   3683 ****        24.0000  19.2500  65.2500 Du        
   3684 ****        24.0000  19.5000  62.0000 Du        
   3685 ****        24.0000  19.5000  62.2500 Du        
   3686 ****        24.0000  19.5000  62.5000 Du        
   3687 ****        24.0000  19.5000  62.7500 Du        
   3688 ****        24.0000  19.5000  63.0000 Du        
   3689 ****        24.0000  19.5000  63.2500 Du        
   3690 ****        24.0000  19.5000  63.5000 Du        
   3691 ****        24.0000  19.5000  63.7500 Du        
   3692 ****        24.0000  19.5000  64.0000 Du        
   3693 ****        24.0000  19.5000  64.2500 Du        
   3694 ****        24.0000  19.5000  64.5000 Du        
   3695 ****        24.0000  19.5000  64.7500 Du        
   3696 ****        24.0000  19.5000  65.0000 Du        
   3697 ****        24.0000  19.5000  65.2500 Du        
   3698 ****        24.0000  19.5000  65.5000 Du        
   3699 ****        24.0000  19.5000  65.7500 Du        
   3700 ****        24.0000  19.7500  61.7500 Du        
   3701 ****        24.0000  19.7500  62.0000 Du        
   3702 ****        24.0000  19.7500  62.2500 Du        
   3703 ****        24.0000  19.7500  62.5000 Du        
   3704 ****        24.0000  19.7500  62.7500 Du        
   3705 ****        24.0000  19.7500  63.0000 Du        
   3706 ****        24.0000  19.7500  63.2500 Du        
   3707 ****        24.0000  19.7500  63.5000 Du        
   3708 ****        24.0000  19.7500  63.7500 Du        
   3709 ****        24.0000  19.7500  64.0000 Du        
   3710 ****        24.0000  19.7500  64.2500 Du        
   3711 ****        24.0000  19.7500  64.5000 Du        
   3712 ****        24.0000  19.7500  64.7500 Du        
   3713 ****        24.0000  19.7500  65.0000 Du        
   3714 ****        24.0000  19.7500  65.2500 Du        
   3715 ****        24.0000  19.7500  65.5000 Du        
   3716 ****        24.0000  19.7500  65.7500 Du        
   3717 ****        24.0000  19.7500  66.0000 Du        
   3718 ****        24.0000  19.7500  66.2500 Du        
   3719 ****        24.0000  20.0000  61.7500 Du        
   3720 ****        24.0000  20.0000  62.0000 Du        
   3721 ****        24.0000  20.0000  62.2500 Du        
   3722 ****        24.0000  20.0000  62.5000 Du        
   3723 ****        24.0000  20.0000  62.7500 Du        
   3724 ****        24.0000  20.0000  63.0000 Du        
   3725 ****        24.0000  20.0000  63.2500 Du        
   3726 ****        24.0000  20.0000  63.5000 Du        
   3727 ****        24.0000  20.0000  63.7500 Du        
   3728 ****        24.0000  20.0000  64.0000 Du        
   3729 ****        24.0000  20.0000  64.2500 Du        
   3730 ****        24.0000  20.0000  64.5000 Du        
   3731 ****        24.0000  20.0000  64.7500 Du        
   3732 ****        24.0000  20.0000  65.0000 Du        
   3733 ****        24.0000  20.0000  65.2500 Du        
   3734 ****        24.0000  20.0000  65.5000 Du        
   3735 ****        24.0000  20.0000  65.7500 Du        
   3736 ****        24.0000  20.0000  66.0000 Du        
   3737 ****        24.0000  20.0000  66.2500 Du        
   3738 ****        24.0000  20.2500  61.7500 Du        
   3739 ****        24.0000  20.2500  62.0000 Du        
   3740 ****        24.0000  20.2500  62.2500 Du        
   3741 ****        24.0000  20.2500  62.5000 Du        
   3742 ****        24.0000  20.2500  62.7500 Du        
   3743 ****        24.0000  20.2500  63.0000 Du        
   3744 ****        24.0000  20.2500  63.2500 Du        
   3745 ****        24.0000  20.2500  63.5000 Du        
   3746 ****        24.0000  20.2500  63.7500 Du        
   3747 ****        24.0000  20.2500  64.0000 Du        
   3748 ****        24.0000  20.2500  64.2500 Du        
   3749 ****        24.0000  20.2500  64.5000 Du        
   3750 ****        24.0000  20.2500  64.7500 Du        
   3751 ****        24.0000  20.2500  65.0000 Du        
   3752 ****        24.0000  20.2500  65.2500 Du        
   3753 ****        24.0000  20.2500  65.5000 Du        
   3754 ****        24.0000  20.5000  61.7500 Du        
   3755 ****        24.0000  20.5000  62.0000 Du        
   3756 ****        24.0000  20.5000  62.2500 Du        
   3757 ****        24.0000  20.5000  62.5000 Du        
   3758 ****        24.0000  20.5000  62.7500 Du        
   3759 ****        24.0000  20.5000  63.0000 Du        
   3760 ****        24.0000  20.5000  63.2500 Du        
   3761 ****        24.0000  20.5000  63.5000 Du        
   3762 ****        24.0000  20.5000  63.7500 Du        
   3763 ****        24.0000  20.5000  64.0000 Du        
   3764 ****        24.0000  20.5000  64.2500 Du        
   3765 ****        24.0000  20.5000  64.5000 Du        
   3766 ****        24.0000  20.5000  64.7500 Du        
   3767 ****        24.0000  20.5000  65.0000 Du        
   3768 ****        24.0000  20.7500  61.7500 Du        
   3769 ****        24.0000  20.7500  62.0000 Du        
   3770 ****        24.0000  20.7500  62.2500 Du        
   3771 ****        24.0000  20.7500  62.5000 Du        
   3772 ****        24.0000  20.7500  62.7500 Du        
   3773 ****        24.0000  20.7500  63.0000 Du        
   3774 ****        24.0000  20.7500  63.2500 Du        
   3775 ****        24.0000  20.7500  63.5000 Du        
   3776 ****        24.0000  20.7500  63.7500 Du        
   3777 ****        24.0000  20.7500  64.0000 Du        
   3778 ****        24.0000  20.7500  64.2500 Du        
   3779 ****        24.0000  20.7500  64.5000 Du        
   3780 ****        24.0000  21.0000  61.7500 Du        
   3781 ****        24.0000  21.0000  62.0000 Du        
   3782 ****        24.0000  21.0000  62.2500 Du        
   3783 ****        24.0000  21.0000  62.5000 Du        
   3784 ****        24.0000  21.0000  62.7500 Du        
   3785 ****        24.0000  21.0000  63.0000 Du        
   3786 ****        24.0000  21.0000  63.2500 Du        
   3787 ****        24.0000  21.0000  63.5000 Du        
   3788 ****        24.0000  21.0000  63.7500 Du        
   3789 ****        24.0000  21.0000  64.0000 Du        
   3790 ****        24.0000  21.0000  64.2500 Du        
   3791 ****        24.0000  21.2500  61.7500 Du        
   3792 ****        24.0000  21.2500  62.0000 Du        
   3793 ****        24.0000  21.2500  62.2500 Du        
   3794 ****        24.0000  21.2500  62.5000 Du        
   3795 ****        24.0000  21.2500  62.7500 Du        
   3796 ****        24.0000  21.2500  63.0000 Du        
   3797 ****        24.0000  21.2500  63.2500 Du        
   3798 ****        24.0000  21.2500  63.5000 Du        
   3799 ****        24.0000  21.2500  63.7500 Du        
   3800 ****        24.0000  21.2500  64.0000 Du        
   3801 ****        24.0000  21.5000  61.7500 Du        
   3802 ****        24.0000  21.5000  62.0000 Du        
   3803 ****        24.0000  21.5000  62.2500 Du        
   3804 ****        24.0000  21.5000  62.5000 Du        
   3805 ****        24.0000  21.5000  62.7500 Du        
   3806 ****        24.0000  21.5000  63.0000 Du        
   3807 ****        24.0000  21.5000  63.2500 Du        
   3808 ****        24.0000  21.5000  63.5000 Du        
   3809 ****        24.0000  21.5000  63.7500 Du        
   3810 ****        24.0000  21.7500  61.5000 Du        
   3811 ****        24.0000  21.7500  61.7500 Du        
   3812 ****        24.0000  21.7500  62.0000 Du        
   3813 ****        24.0000  21.7500  62.2500 Du        
   3814 ****        24.0000  21.7500  62.5000 Du        
   3815 ****        24.0000  21.7500  62.7500 Du        
   3816 ****        24.0000  21.7500  63.0000 Du        
   3817 ****        24.0000  21.7500  63.2500 Du        
   3818 ****        24.0000  21.7500  63.5000 Du        
   3819 ****        24.0000  22.0000  61.2500 Du        
   3820 ****        24.0000  22.0000  61.5000 Du        
   3821 ****        24.0000  22.0000  61.7500 Du        
   3822 ****        24.0000  22.0000  62.0000 Du        
   3823 ****        24.0000  22.0000  62.2500 Du        
   3824 ****        24.0000  22.0000  62.5000 Du        
   3825 ****        24.0000  22.0000  62.7500 Du        
   3826 ****        24.0000  22.0000  63.0000 Du        
   3827 ****        24.0000  22.0000  63.2500 Du        
   3828 ****        24.0000  22.2500  61.0000 Du        
   3829 ****        24.0000  22.2500  61.2500 Du        
   3830 ****        24.0000  22.2500  61.5000 Du        
   3831 ****        24.0000  22.2500  61.7500 Du        
   3832 ****        24.0000  22.2500  62.0000 Du        
   3833 ****        24.0000  22.2500  62.2500 Du        
   3834 ****        24.0000  22.2500  62.5000 Du        
   3835 ****        24.0000  22.2500  62.7500 Du        
   3836 ****        24.0000  22.2500  63.0000 Du        
   3837 ****        24.0000  22.5000  60.7500 Du        
   3838 ****        24.0000  22.5000  61.0000 Du        
   3839 ****        24.0000  22.5000  61.2500 Du        
   3840 ****        24.0000  22.5000  61.5000 Du        
   3841 ****        24.0000  22.5000  61.7500 Du        
   3842 ****        24.0000  22.5000  62.0000 Du        
   3843 ****        24.0000  22.5000  62.2500 Du        
   3844 ****        24.0000  22.5000  62.5000 Du        
   3845 ****        24.0000  22.5000  62.7500 Du        
   3846 ****        24.0000  22.7500  60.2500 Du        
   3847 ****        24.0000  22.7500  60.5000 Du        
   3848 ****        24.0000  22.7500  60.7500 Du        
   3849 ****        24.0000  22.7500  61.0000 Du        
   3850 ****        24.0000  22.7500  61.2500 Du        
   3851 ****        24.0000  22.7500  61.5000 Du        
   3852 ****        24.0000  22.7500  61.7500 Du        
   3853 ****        24.0000  22.7500  62.0000 Du        
   3854 ****        24.0000  22.7500  62.2500 Du        
   3855 ****        24.0000  22.7500  62.5000 Du        
   3856 ****        24.0000  23.0000  59.7500 Du        
   3857 ****        24.0000  23.0000  60.0000 Du        
   3858 ****        24.0000  23.0000  60.2500 Du        
   3859 ****        24.0000  23.0000  60.5000 Du        
   3860 ****        24.0000  23.0000  60.7500 Du        
   3861 ****        24.0000  23.0000  61.0000 Du        
   3862 ****        24.0000  23.0000  61.2500 Du        
   3863 ****        24.0000  23.0000  61.5000 Du        
   3864 ****        24.0000  23.0000  61.7500 Du        
   3865 ****        24.0000  23.0000  62.0000 Du        
   3866 ****        24.0000  23.0000  62.2500 Du        
   3867 ****        24.0000  23.0000  62.5000 Du        
   3868 ****        24.0000  23.2500  59.2500 Du        
   3869 ****        24.0000  23.2500  59.5000 Du        
   3870 ****        24.0000  23.2500  59.7500 Du        
   3871 ****        24.0000  23.2500  60.0000 Du        
   3872 ****        24.0000  23.2500  60.2500 Du        
   3873 ****        24.0000  23.2500  60.5000 Du        
   3874 ****        24.0000  23.2500  60.7500 Du        
   3875 ****        24.0000  23.2500  61.0000 Du        
   3876 ****        24.0000  23.2500  61.2500 Du        
   3877 ****        24.0000  23.2500  61.5000 Du        
   3878 ****        24.0000  23.2500  61.7500 Du        
   3879 ****        24.0000  23.2500  62.0000 Du        
   3880 ****        24.0000  23.2500  62.2500 Du        
   3881 ****        24.0000  23.5000  59.7500 Du        
   3882 ****        24.0000  23.5000  60.0000 Du        
   3883 ****        24.0000  23.5000  60.2500 Du        
   3884 ****        24.0000  23.5000  60.5000 Du        
   3885 ****        24.0000  23.5000  60.7500 Du        
   3886 ****        24.0000  23.5000  61.0000 Du        
   3887 ****        24.0000  23.5000  61.2500 Du        
   3888 ****        24.0000  23.5000  61.5000 Du        
   3889 ****        24.0000  23.5000  61.7500 Du        
   3890 ****        24.0000  23.5000  62.0000 Du        
   3891 ****        24.0000  23.5000  62.2500 Du        
   3892 ****        24.0000  23.7500  60.2500 Du        
   3893 ****        24.0000  23.7500  60.5000 Du        
   3894 ****        24.0000  23.7500  60.7500 Du        
   3895 ****        24.0000  23.7500  61.0000 Du        
   3896 ****        24.0000  23.7500  61.2500 Du        
   3897 ****        24.0000  23.7500  61.5000 Du        
   3898 ****        24.0000  23.7500  61.7500 Du        
   3899 ****        24.0000  23.7500  62.0000 Du        
   3900 ****        24.0000  23.7500  62.2500 Du        
   3901 ****        24.0000  24.0000  61.2500 Du        
   3902 ****        24.0000  24.0000  61.5000 Du        
   3903 ****        24.0000  24.0000  61.7500 Du        
   3904 ****        24.0000  24.0000  62.0000 Du        
   3905 ****        24.0000  32.5000  60.0000 Du        
   3906 ****        24.0000  32.5000  60.2500 Du        
   3907 ****        24.0000  32.7500  59.5000 Du        
   3908 ****        24.0000  32.7500  59.7500 Du        
   3909 ****        24.0000  32.7500  60.0000 Du        
   3910 ****        24.0000  32.7500  60.2500 Du        
   3911 ****        24.0000  33.0000  59.0000 Du        
   3912 ****        24.0000  33.0000  59.2500 Du        
   3913 ****        24.0000  33.0000  59.5000 Du        
   3914 ****        24.0000  33.0000  59.7500 Du        
   3915 ****        24.0000  33.0000  60.0000 Du        
   3916 ****        24.0000  33.0000  60.2500 Du        
   3917 ****        24.0000  33.2500  58.5000 Du        
   3918 ****        24.0000  33.2500  58.7500 Du        
   3919 ****        24.0000  33.2500  59.0000 Du        
   3920 ****        24.0000  33.2500  59.2500 Du        
   3921 ****        24.0000  33.2500  59.5000 Du        
   3922 ****        24.0000  33.2500  59.7500 Du        
   3923 ****        24.0000  33.2500  60.0000 Du        
   3924 ****        24.0000  33.2500  60.2500 Du        
   3925 ****        24.0000  33.5000  58.5000 Du        
   3926 ****        24.0000  33.5000  58.7500 Du        
   3927 ****        24.0000  33.5000  59.0000 Du        
   3928 ****        24.0000  33.5000  59.2500 Du        
   3929 ****        24.0000  33.5000  59.5000 Du        
   3930 ****        24.0000  33.5000  59.7500 Du        
   3931 ****        24.0000  33.5000  60.0000 Du        
   3932 ****        24.0000  33.5000  60.2500 Du        
   3933 ****        24.0000  33.7500  58.5000 Du        
   3934 ****        24.0000  33.7500  58.7500 Du        
   3935 ****        24.0000  33.7500  59.0000 Du        
   3936 ****        24.0000  33.7500  59.2500 Du        
   3937 ****        24.0000  33.7500  59.5000 Du        
   3938 ****        24.0000  33.7500  59.7500 Du        
   3939 ****        24.0000  33.7500  60.0000 Du        
   3940 ****        24.0000  33.7500  60.2500 Du        
   3941 ****        24.0000  34.0000  58.7500 Du        
   3942 ****        24.0000  34.0000  59.0000 Du        
   3943 ****        24.0000  34.0000  59.2500 Du        
   3944 ****        24.0000  34.0000  59.5000 Du        
   3945 ****        24.0000  34.0000  59.7500 Du        
   3946 ****        24.0000  34.0000  60.0000 Du        
   3947 ****        24.0000  34.0000  60.2500 Du        
   3948 ****        24.0000  34.2500  59.0000 Du        
   3949 ****        24.0000  34.2500  59.2500 Du        
   3950 ****        24.0000  34.2500  59.5000 Du        
   3951 ****        24.0000  34.2500  59.7500 Du        
   3952 ****        24.0000  34.2500  60.0000 Du        
   3953 ****        24.0000  34.2500  60.2500 Du        
   3954 ****        24.2500  18.5000  63.5000 Du        
   3955 ****        24.2500  18.5000  63.7500 Du        
   3956 ****        24.2500  18.7500  63.2500 Du        
   3957 ****        24.2500  18.7500  63.5000 Du        
   3958 ****        24.2500  18.7500  63.7500 Du        
   3959 ****        24.2500  18.7500  64.0000 Du        
   3960 ****        24.2500  18.7500  64.2500 Du        
   3961 ****        24.2500  19.0000  63.0000 Du        
   3962 ****        24.2500  19.0000  63.2500 Du        
   3963 ****        24.2500  19.0000  63.5000 Du        
   3964 ****        24.2500  19.0000  63.7500 Du        
   3965 ****        24.2500  19.0000  64.0000 Du        
   3966 ****        24.2500  19.0000  64.2500 Du        
   3967 ****        24.2500  19.0000  64.5000 Du        
   3968 ****        24.2500  19.2500  62.7500 Du        
   3969 ****        24.2500  19.2500  63.0000 Du        
   3970 ****        24.2500  19.2500  63.2500 Du        
   3971 ****        24.2500  19.2500  63.5000 Du        
   3972 ****        24.2500  19.2500  63.7500 Du        
   3973 ****        24.2500  19.2500  64.0000 Du        
   3974 ****        24.2500  19.2500  64.2500 Du        
   3975 ****        24.2500  19.2500  64.5000 Du        
   3976 ****        24.2500  19.2500  64.7500 Du        
   3977 ****        24.2500  19.2500  65.0000 Du        
   3978 ****        24.2500  19.5000  62.5000 Du        
   3979 ****        24.2500  19.5000  62.7500 Du        
   3980 ****        24.2500  19.5000  63.0000 Du        
   3981 ****        24.2500  19.5000  63.2500 Du        
   3982 ****        24.2500  19.5000  63.5000 Du        
   3983 ****        24.2500  19.5000  63.7500 Du        
   3984 ****        24.2500  19.5000  64.0000 Du        
   3985 ****        24.2500  19.5000  64.2500 Du        
   3986 ****        24.2500  19.5000  64.5000 Du        
   3987 ****        24.2500  19.5000  64.7500 Du        
   3988 ****        24.2500  19.5000  65.0000 Du        
   3989 ****        24.2500  19.5000  65.2500 Du        
   3990 ****        24.2500  19.5000  65.5000 Du        
   3991 ****        24.2500  19.7500  62.2500 Du        
   3992 ****        24.2500  19.7500  62.5000 Du        
   3993 ****        24.2500  19.7500  62.7500 Du        
   3994 ****        24.2500  19.7500  63.0000 Du        
   3995 ****        24.2500  19.7500  63.2500 Du        
   3996 ****        24.2500  19.7500  63.5000 Du        
   3997 ****        24.2500  19.7500  63.7500 Du        
   3998 ****        24.2500  19.7500  64.0000 Du        
   3999 ****        24.2500  19.7500  64.2500 Du        
   4000 ****        24.2500  19.7500  64.5000 Du        
   4001 ****        24.2500  19.7500  64.7500 Du        
   4002 ****        24.2500  19.7500  65.0000 Du        
   4003 ****        24.2500  19.7500  65.2500 Du        
   4004 ****        24.2500  19.7500  65.5000 Du        
   4005 ****        24.2500  19.7500  65.7500 Du        
   4006 ****        24.2500  19.7500  66.0000 Du        
   4007 ****        24.2500  19.7500  66.2500 Du        
   4008 ****        24.2500  20.0000  61.7500 Du        
   4009 ****        24.2500  20.0000  62.0000 Du        
   4010 ****        24.2500  20.0000  62.2500 Du        
   4011 ****        24.2500  20.0000  62.5000 Du        
   4012 ****        24.2500  20.0000  62.7500 Du        
   4013 ****        24.2500  20.0000  63.0000 Du        
   4014 ****        24.2500  20.0000  63.2500 Du        
   4015 ****        24.2500  20.0000  63.5000 Du        
   4016 ****        24.2500  20.0000  63.7500 Du        
   4017 ****        24.2500  20.0000  64.0000 Du        
   4018 ****        24.2500  20.0000  64.2500 Du        
   4019 ****        24.2500  20.0000  64.5000 Du        
   4020 ****        24.2500  20.0000  64.7500 Du        
   4021 ****        24.2500  20.0000  65.0000 Du        
   4022 ****        24.2500  20.0000  65.2500 Du        
   4023 ****        24.2500  20.0000  65.5000 Du        
   4024 ****        24.2500  20.0000  65.7500 Du        
   4025 ****        24.2500  20.0000  66.0000 Du        
   4026 ****        24.2500  20.0000  66.2500 Du        
   4027 ****        24.2500  20.2500  61.7500 Du        
   4028 ****        24.2500  20.2500  62.0000 Du        
   4029 ****        24.2500  20.2500  62.2500 Du        
   4030 ****        24.2500  20.2500  62.5000 Du        
   4031 ****        24.2500  20.2500  62.7500 Du        
   4032 ****        24.2500  20.2500  63.0000 Du        
   4033 ****        24.2500  20.2500  63.2500 Du        
   4034 ****        24.2500  20.2500  63.5000 Du        
   4035 ****        24.2500  20.2500  63.7500 Du        
   4036 ****        24.2500  20.2500  64.0000 Du        
   4037 ****        24.2500  20.2500  64.2500 Du        
   4038 ****        24.2500  20.2500  64.5000 Du        
   4039 ****        24.2500  20.2500  64.7500 Du        
   4040 ****        24.2500  20.2500  65.0000 Du        
   4041 ****        24.2500  20.2500  65.2500 Du        
   4042 ****        24.2500  20.2500  65.5000 Du        
   4043 ****        24.2500  20.2500  65.7500 Du        
   4044 ****        24.2500  20.5000  61.7500 Du        
   4045 ****        24.2500  20.5000  62.0000 Du        
   4046 ****        24.2500  20.5000  62.2500 Du        
   4047 ****        24.2500  20.5000  62.5000 Du        
   4048 ****        24.2500  20.5000  62.7500 Du        
   4049 ****        24.2500  20.5000  63.0000 Du        
   4050 ****        24.2500  20.5000  63.2500 Du        
   4051 ****        24.2500  20.5000  63.5000 Du        
   4052 ****        24.2500  20.5000  63.7500 Du        
   4053 ****        24.2500  20.5000  64.0000 Du        
   4054 ****        24.2500  20.5000  64.2500 Du        
   4055 ****        24.2500  20.5000  64.5000 Du        
   4056 ****        24.2500  20.5000  64.7500 Du        
   4057 ****        24.2500  20.5000  65.0000 Du        
   4058 ****        24.2500  20.7500  61.7500 Du        
   4059 ****        24.2500  20.7500  62.0000 Du        
   4060 ****        24.2500  20.7500  62.2500 Du        
   4061 ****        24.2500  20.7500  62.5000 Du        
   4062 ****        24.2500  20.7500  62.7500 Du        
   4063 ****        24.2500  20.7500  63.0000 Du        
   4064 ****        24.2500  20.7500  63.2500 Du        
   4065 ****        24.2500  20.7500  63.5000 Du        
   4066 ****        24.2500  20.7500  63.7500 Du        
   4067 ****        24.2500  20.7500  64.0000 Du        
   4068 ****        24.2500  20.7500  64.2500 Du        
   4069 ****        24.2500  20.7500  64.5000 Du        
   4070 ****        24.2500  20.7500  64.7500 Du        
   4071 ****        24.2500  21.0000  61.5000 Du        
   4072 ****        24.2500  21.0000  61.7500 Du        
   4073 ****        24.2500  21.0000  62.0000 Du        
   4074 ****        24.2500  21.0000  62.2500 Du        
   4075 ****        24.2500  21.0000  62.5000 Du        
   4076 ****        24.2500  21.0000  62.7500 Du        
   4077 ****        24.2500  21.0000  63.0000 Du        
   4078 ****        24.2500  21.0000  63.2500 Du        
   4079 ****        24.2500  21.0000  63.5000 Du        
   4080 ****        24.2500  21.0000  63.7500 Du        
   4081 ****        24.2500  21.0000  64.0000 Du        
   4082 ****        24.2500  21.0000  64.2500 Du        
   4083 ****        24.2500  21.2500  61.5000 Du        
   4084 ****        24.2500  21.2500  61.7500 Du        
   4085 ****        24.2500  21.2500  62.0000 Du        
   4086 ****        24.2500  21.2500  62.2500 Du        
   4087 ****        24.2500  21.2500  62.5000 Du        
   4088 ****        24.2500  21.2500  62.7500 Du        
   4089 ****        24.2500  21.2500  63.0000 Du        
   4090 ****        24.2500  21.2500  63.2500 Du        
   4091 ****        24.2500  21.2500  63.5000 Du        
   4092 ****        24.2500  21.2500  63.7500 Du        
   4093 ****        24.2500  21.2500  64.0000 Du        
   4094 ****        24.2500  21.5000  61.5000 Du        
   4095 ****        24.2500  21.5000  61.7500 Du        
   4096 ****        24.2500  21.5000  62.0000 Du        
   4097 ****        24.2500  21.5000  62.2500 Du        
   4098 ****        24.2500  21.5000  62.5000 Du        
   4099 ****        24.2500  21.5000  62.7500 Du        
   4100 ****        24.2500  21.5000  63.0000 Du        
   4101 ****        24.2500  21.5000  63.2500 Du        
   4102 ****        24.2500  21.5000  63.5000 Du        
   4103 ****        24.2500  21.5000  63.7500 Du        
   4104 ****        24.2500  21.7500  61.2500 Du        
   4105 ****        24.2500  21.7500  61.5000 Du        
   4106 ****        24.2500  21.7500  61.7500 Du        
   4107 ****        24.2500  21.7500  62.0000 Du        
   4108 ****        24.2500  21.7500  62.2500 Du        
   4109 ****        24.2500  21.7500  62.5000 Du        
   4110 ****        24.2500  21.7500  62.7500 Du        
   4111 ****        24.2500  21.7500  63.0000 Du        
   4112 ****        24.2500  21.7500  63.2500 Du        
   4113 ****        24.2500  21.7500  63.5000 Du        
   4114 ****        24.2500  22.0000  61.2500 Du        
   4115 ****        24.2500  22.0000  61.5000 Du        
   4116 ****        24.2500  22.0000  61.7500 Du        
   4117 ****        24.2500  22.0000  62.0000 Du        
   4118 ****        24.2500  22.0000  62.2500 Du        
   4119 ****        24.2500  22.0000  62.5000 Du        
   4120 ****        24.2500  22.0000  62.7500 Du        
   4121 ****        24.2500  22.0000  63.0000 Du        
   4122 ****        24.2500  22.0000  63.2500 Du        
   4123 ****        24.2500  22.2500  61.0000 Du        
   4124 ****        24.2500  22.2500  61.2500 Du        
   4125 ****        24.2500  22.2500  61.5000 Du        
   4126 ****        24.2500  22.2500  61.7500 Du        
   4127 ****        24.2500  22.2500  62.0000 Du        
   4128 ****        24.2500  22.2500  62.2500 Du        
   4129 ****        24.2500  22.2500  62.5000 Du        
   4130 ****        24.2500  22.2500  62.7500 Du        
   4131 ****        24.2500  22.2500  63.0000 Du        
   4132 ****        24.2500  22.5000  60.7500 Du        
   4133 ****        24.2500  22.5000  61.0000 Du        
   4134 ****        24.2500  22.5000  61.2500 Du        
   4135 ****        24.2500  22.5000  61.5000 Du        
   4136 ****        24.2500  22.5000  61.7500 Du        
   4137 ****        24.2500  22.5000  62.0000 Du        
   4138 ****        24.2500  22.5000  62.2500 Du        
   4139 ****        24.2500  22.5000  62.5000 Du        
   4140 ****        24.2500  22.5000  62.7500 Du        
   4141 ****        24.2500  22.7500  60.2500 Du        
   4142 ****        24.2500  22.7500  60.5000 Du        
   4143 ****        24.2500  22.7500  60.7500 Du        
   4144 ****        24.2500  22.7500  61.0000 Du        
   4145 ****        24.2500  22.7500  61.2500 Du        
   4146 ****        24.2500  22.7500  61.5000 Du        
   4147 ****        24.2500  22.7500  61.7500 Du        
   4148 ****        24.2500  22.7500  62.0000 Du        
   4149 ****        24.2500  22.7500  62.2500 Du        
   4150 ****        24.2500  22.7500  62.5000 Du        
   4151 ****        24.2500  22.7500  62.7500 Du        
   4152 ****        24.2500  23.0000  60.0000 Du        
   4153 ****        24.2500  23.0000  60.2500 Du        
   4154 ****        24.2500  23.0000  60.5000 Du        
   4155 ****        24.2500  23.0000  60.7500 Du        
   4156 ****        24.2500  23.0000  61.0000 Du        
   4157 ****        24.2500  23.0000  61.2500 Du        
   4158 ****        24.2500  23.0000  61.5000 Du        
   4159 ****        24.2500  23.0000  61.7500 Du        
   4160 ****        24.2500  23.0000  62.0000 Du        
   4161 ****        24.2500  23.0000  62.2500 Du        
   4162 ****        24.2500  23.0000  62.5000 Du        
   4163 ****        24.2500  23.2500  59.2500 Du        
   4164 ****        24.2500  23.2500  59.5000 Du        
   4165 ****        24.2500  23.2500  59.7500 Du        
   4166 ****        24.2500  23.2500  60.0000 Du        
   4167 ****        24.2500  23.2500  60.2500 Du        
   4168 ****        24.2500  23.2500  60.5000 Du        
   4169 ****        24.2500  23.2500  60.7500 Du        
   4170 ****        24.2500  23.2500  61.0000 Du        
   4171 ****        24.2500  23.2500  61.2500 Du        
   4172 ****        24.2500  23.2500  61.5000 Du        
   4173 ****        24.2500  23.2500  61.7500 Du        
   4174 ****        24.2500  23.2500  62.0000 Du        
   4175 ****        24.2500  23.2500  62.2500 Du        
   4176 ****        24.2500  23.5000  59.0000 Du        
   4177 ****        24.2500  23.5000  59.2500 Du        
   4178 ****        24.2500  23.5000  59.5000 Du        
   4179 ****        24.2500  23.5000  59.7500 Du        
   4180 ****        24.2500  23.5000  60.0000 Du        
   4181 ****        24.2500  23.5000  60.2500 Du        
   4182 ****        24.2500  23.5000  60.5000 Du        
   4183 ****        24.2500  23.5000  60.7500 Du        
   4184 ****        24.2500  23.5000  61.0000 Du        
   4185 ****        24.2500  23.5000  61.2500 Du        
   4186 ****        24.2500  23.5000  61.5000 Du        
   4187 ****        24.2500  23.5000  61.7500 Du        
   4188 ****        24.2500  23.5000  62.0000 Du        
   4189 ****        24.2500  23.5000  62.2500 Du        
   4190 ****        24.2500  23.7500  59.7500 Du        
   4191 ****        24.2500  23.7500  60.0000 Du        
   4192 ****        24.2500  23.7500  60.2500 Du        
   4193 ****        24.2500  23.7500  60.5000 Du        
   4194 ****        24.2500  23.7500  60.7500 Du        
   4195 ****        24.2500  23.7500  61.0000 Du        
   4196 ****        24.2500  23.7500  61.2500 Du        
   4197 ****        24.2500  23.7500  61.5000 Du        
   4198 ****        24.2500  23.7500  61.7500 Du        
   4199 ****        24.2500  23.7500  62.0000 Du        
   4200 ****        24.2500  24.0000  60.7500 Du        
   4201 ****        24.2500  24.0000  61.0000 Du        
   4202 ****        24.2500  24.0000  61.2500 Du        
   4203 ****        24.2500  24.0000  61.5000 Du        
   4204 ****        24.2500  24.0000  61.7500 Du        
   4205 ****        24.2500  24.0000  62.0000 Du        
   4206 ****        24.2500  32.5000  60.2500 Du        
   4207 ****        24.2500  32.7500  59.7500 Du        
   4208 ****        24.2500  32.7500  60.0000 Du        
   4209 ****        24.2500  32.7500  60.2500 Du        
   4210 ****        24.2500  33.0000  59.2500 Du        
   4211 ****        24.2500  33.0000  59.5000 Du        
   4212 ****        24.2500  33.0000  59.7500 Du        
   4213 ****        24.2500  33.0000  60.0000 Du        
   4214 ****        24.2500  33.0000  60.2500 Du        
   4215 ****        24.2500  33.2500  58.7500 Du        
   4216 ****        24.2500  33.2500  59.0000 Du        
   4217 ****        24.2500  33.2500  59.2500 Du        
   4218 ****        24.2500  33.2500  59.5000 Du        
   4219 ****        24.2500  33.2500  59.7500 Du        
   4220 ****        24.2500  33.2500  60.0000 Du        
   4221 ****        24.2500  33.2500  60.2500 Du        
   4222 ****        24.2500  33.5000  58.5000 Du        
   4223 ****        24.2500  33.5000  58.7500 Du        
   4224 ****        24.2500  33.5000  59.0000 Du        
   4225 ****        24.2500  33.5000  59.2500 Du        
   4226 ****        24.2500  33.5000  59.5000 Du        
   4227 ****        24.2500  33.5000  59.7500 Du        
   4228 ****        24.2500  33.5000  60.0000 Du        
   4229 ****        24.2500  33.5000  60.2500 Du        
   4230 ****        24.2500  33.7500  58.5000 Du        
   4231 ****        24.2500  33.7500  58.7500 Du        
   4232 ****        24.2500  33.7500  59.0000 Du        
   4233 ****        24.2500  33.7500  59.2500 Du        
   4234 ****        24.2500  33.7500  59.5000 Du        
   4235 ****        24.2500  33.7500  59.7500 Du        
   4236 ****        24.2500  33.7500  60.0000 Du        
   4237 ****        24.2500  33.7500  60.2500 Du        
   4238 ****        24.2500  34.0000  58.7500 Du        
   4239 ****        24.2500  34.0000  59.0000 Du        
   4240 ****        24.2500  34.0000  59.2500 Du        
   4241 ****        24.2500  34.0000  59.5000 Du        
   4242 ****        24.2500  34.0000  59.7500 Du        
   4243 ****        24.2500  34.0000  60.0000 Du        
   4244 ****        24.2500  34.0000  60.2500 Du        
   4245 ****        24.2500  34.2500  59.0000 Du        
   4246 ****        24.2500  34.2500  59.2500 Du        
   4247 ****        24.2500  34.2500  59.5000 Du        
   4248 ****        24.2500  34.2500  59.7500 Du        
   4249 ****        24.2500  34.2500  60.0000 Du        
   4250 ****        24.2500  34.2500  60.2500 Du        
   4251 ****        24.5000  18.7500  63.7500 Du        
   4252 ****        24.5000  19.0000  63.2500 Du        
   4253 ****        24.5000  19.0000  63.5000 Du        
   4254 ****        24.5000  19.0000  63.7500 Du        
   4255 ****        24.5000  19.0000  64.0000 Du        
   4256 ****        24.5000  19.0000  64.2500 Du        
   4257 ****        24.5000  19.0000  64.5000 Du        
   4258 ****        24.5000  19.2500  63.2500 Du        
   4259 ****        24.5000  19.2500  63.5000 Du        
   4260 ****        24.5000  19.2500  63.7500 Du        
   4261 ****        24.5000  19.2500  64.0000 Du        
   4262 ****        24.5000  19.2500  64.2500 Du        
   4263 ****        24.5000  19.2500  64.5000 Du        
   4264 ****        24.5000  19.2500  64.7500 Du        
   4265 ****        24.5000  19.5000  63.0000 Du        
   4266 ****        24.5000  19.5000  63.2500 Du        
   4267 ****        24.5000  19.5000  63.5000 Du        
   4268 ****        24.5000  19.5000  63.7500 Du        
   4269 ****        24.5000  19.5000  64.0000 Du        
   4270 ****        24.5000  19.5000  64.2500 Du        
   4271 ****        24.5000  19.5000  64.5000 Du        
   4272 ****        24.5000  19.5000  64.7500 Du        
   4273 ****        24.5000  19.5000  65.0000 Du        
   4274 ****        24.5000  19.5000  65.2500 Du        
   4275 ****        24.5000  19.7500  62.7500 Du        
   4276 ****        24.5000  19.7500  63.0000 Du        
   4277 ****        24.5000  19.7500  63.2500 Du        
   4278 ****        24.5000  19.7500  63.5000 Du        
   4279 ****        24.5000  19.7500  63.7500 Du        
   4280 ****        24.5000  19.7500  64.0000 Du        
   4281 ****        24.5000  19.7500  64.2500 Du        
   4282 ****        24.5000  19.7500  64.5000 Du        
   4283 ****        24.5000  19.7500  64.7500 Du        
   4284 ****        24.5000  19.7500  65.0000 Du        
   4285 ****        24.5000  19.7500  65.2500 Du        
   4286 ****        24.5000  19.7500  65.5000 Du        
   4287 ****        24.5000  19.7500  65.7500 Du        
   4288 ****        24.5000  20.0000  62.2500 Du        
   4289 ****        24.5000  20.0000  62.5000 Du        
   4290 ****        24.5000  20.0000  62.7500 Du        
   4291 ****        24.5000  20.0000  63.0000 Du        
   4292 ****        24.5000  20.0000  63.2500 Du        
   4293 ****        24.5000  20.0000  63.5000 Du        
   4294 ****        24.5000  20.0000  63.7500 Du        
   4295 ****        24.5000  20.0000  64.0000 Du        
   4296 ****        24.5000  20.0000  64.2500 Du        
   4297 ****        24.5000  20.0000  64.5000 Du        
   4298 ****        24.5000  20.0000  64.7500 Du        
   4299 ****        24.5000  20.0000  65.0000 Du        
   4300 ****        24.5000  20.0000  65.2500 Du        
   4301 ****        24.5000  20.0000  65.5000 Du        
   4302 ****        24.5000  20.0000  65.7500 Du        
   4303 ****        24.5000  20.0000  66.0000 Du        
   4304 ****        24.5000  20.0000  66.2500 Du        
   4305 ****        24.5000  20.2500  62.0000 Du        
   4306 ****        24.5000  20.2500  62.2500 Du        
   4307 ****        24.5000  20.2500  62.5000 Du        
   4308 ****        24.5000  20.2500  62.7500 Du        
   4309 ****        24.5000  20.2500  63.0000 Du        
   4310 ****        24.5000  20.2500  63.2500 Du        
   4311 ****        24.5000  20.2500  63.5000 Du        
   4312 ****        24.5000  20.2500  63.7500 Du        
   4313 ****        24.5000  20.2500  64.0000 Du        
   4314 ****        24.5000  20.2500  64.2500 Du        
   4315 ****        24.5000  20.2500  64.5000 Du        
   4316 ****        24.5000  20.2500  64.7500 Du        
   4317 ****        24.5000  20.2500  65.0000 Du        
   4318 ****        24.5000  20.2500  65.2500 Du        
   4319 ****        24.5000  20.2500  65.5000 Du        
   4320 ****        24.5000  20.2500  65.7500 Du        
   4321 ****        24.5000  20.5000  61.7500 Du        
   4322 ****        24.5000  20.5000  62.0000 Du        
   4323 ****        24.5000  20.5000  62.2500 Du        
   4324 ****        24.5000  20.5000  62.5000 Du        
   4325 ****        24.5000  20.5000  62.7500 Du        
   4326 ****        24.5000  20.5000  63.0000 Du        
   4327 ****        24.5000  20.5000  63.2500 Du        
   4328 ****        24.5000  20.5000  63.5000 Du        
   4329 ****        24.5000  20.5000  63.7500 Du        
   4330 ****        24.5000  20.5000  64.0000 Du        
   4331 ****        24.5000  20.5000  64.2500 Du        
   4332 ****        24.5000  20.5000  64.5000 Du        
   4333 ****        24.5000  20.5000  64.7500 Du        
   4334 ****        24.5000  20.5000  65.0000 Du        
   4335 ****        24.5000  20.7500  61.7500 Du        
   4336 ****        24.5000  20.7500  62.0000 Du        
   4337 ****        24.5000  20.7500  62.2500 Du        
   4338 ****        24.5000  20.7500  62.5000 Du        
   4339 ****        24.5000  20.7500  62.7500 Du        
   4340 ****        24.5000  20.7500  63.0000 Du        
   4341 ****        24.5000  20.7500  63.2500 Du        
   4342 ****        24.5000  20.7500  63.5000 Du        
   4343 ****        24.5000  20.7500  63.7500 Du        
   4344 ****        24.5000  20.7500  64.0000 Du        
   4345 ****        24.5000  20.7500  64.2500 Du        
   4346 ****        24.5000  20.7500  64.5000 Du        
   4347 ****        24.5000  20.7500  64.7500 Du        
   4348 ****        24.5000  21.0000  61.7500 Du        
   4349 ****        24.5000  21.0000  62.0000 Du        
   4350 ****        24.5000  21.0000  62.2500 Du        
   4351 ****        24.5000  21.0000  62.5000 Du        
   4352 ****        24.5000  21.0000  62.7500 Du        
   4353 ****        24.5000  21.0000  63.0000 Du        
   4354 ****        24.5000  21.0000  63.2500 Du        
   4355 ****        24.5000  21.0000  63.5000 Du        
   4356 ****        24.5000  21.0000  63.7500 Du        
   4357 ****        24.5000  21.0000  64.0000 Du        
   4358 ****        24.5000  21.0000  64.2500 Du        
   4359 ****        24.5000  21.2500  61.7500 Du        
   4360 ****        24.5000  21.2500  62.0000 Du        
   4361 ****        24.5000  21.2500  62.2500 Du        
   4362 ****        24.5000  21.2500  62.5000 Du        
   4363 ****        24.5000  21.2500  62.7500 Du        
   4364 ****        24.5000  21.2500  63.0000 Du        
   4365 ****        24.5000  21.2500  63.2500 Du        
   4366 ****        24.5000  21.2500  63.5000 Du        
   4367 ****        24.5000  21.2500  63.7500 Du        
   4368 ****        24.5000  21.2500  64.0000 Du        
   4369 ****        24.5000  21.5000  61.5000 Du        
   4370 ****        24.5000  21.5000  61.7500 Du        
   4371 ****        24.5000  21.5000  62.0000 Du        
   4372 ****        24.5000  21.5000  62.2500 Du        
   4373 ****        24.5000  21.5000  62.5000 Du        
   4374 ****        24.5000  21.5000  62.7500 Du        
   4375 ****        24.5000  21.5000  63.0000 Du        
   4376 ****        24.5000  21.5000  63.2500 Du        
   4377 ****        24.5000  21.5000  63.5000 Du        
   4378 ****        24.5000  21.5000  63.7500 Du        
   4379 ****        24.5000  21.7500  61.2500 Du        
   4380 ****        24.5000  21.7500  61.5000 Du        
   4381 ****        24.5000  21.7500  61.7500 Du        
   4382 ****        24.5000  21.7500  62.0000 Du        
   4383 ****        24.5000  21.7500  62.2500 Du        
   4384 ****        24.5000  21.7500  62.5000 Du        
   4385 ****        24.5000  21.7500  62.7500 Du        
   4386 ****        24.5000  21.7500  63.0000 Du        
   4387 ****        24.5000  21.7500  63.2500 Du        
   4388 ****        24.5000  21.7500  63.5000 Du        
   4389 ****        24.5000  22.0000  61.2500 Du        
   4390 ****        24.5000  22.0000  61.5000 Du        
   4391 ****        24.5000  22.0000  61.7500 Du        
   4392 ****        24.5000  22.0000  62.0000 Du        
   4393 ****        24.5000  22.0000  62.2500 Du        
   4394 ****        24.5000  22.0000  62.5000 Du        
   4395 ****        24.5000  22.0000  62.7500 Du        
   4396 ****        24.5000  22.0000  63.0000 Du        
   4397 ****        24.5000  22.0000  63.2500 Du        
   4398 ****        24.5000  22.2500  61.0000 Du        
   4399 ****        24.5000  22.2500  61.2500 Du        
   4400 ****        24.5000  22.2500  61.5000 Du        
   4401 ****        24.5000  22.2500  61.7500 Du        
   4402 ****        24.5000  22.2500  62.0000 Du        
   4403 ****        24.5000  22.2500  62.2500 Du        
   4404 ****        24.5000  22.2500  62.5000 Du        
   4405 ****        24.5000  22.2500  62.7500 Du        
   4406 ****        24.5000  22.2500  63.0000 Du        
   4407 ****        24.5000  22.5000  61.0000 Du        
   4408 ****        24.5000  22.5000  61.2500 Du        
   4409 ****        24.5000  22.5000  61.5000 Du        
   4410 ****        24.5000  22.5000  61.7500 Du        
   4411 ****        24.5000  22.5000  62.0000 Du        
   4412 ****        24.5000  22.5000  62.2500 Du        
   4413 ****        24.5000  22.5000  62.5000 Du        
   4414 ****        24.5000  22.7500  60.5000 Du        
   4415 ****        24.5000  22.7500  60.7500 Du        
   4416 ****        24.5000  22.7500  61.0000 Du        
   4417 ****        24.5000  22.7500  61.2500 Du        
   4418 ****        24.5000  22.7500  61.5000 Du        
   4419 ****        24.5000  22.7500  61.7500 Du        
   4420 ****        24.5000  22.7500  62.0000 Du        
   4421 ****        24.5000  22.7500  62.2500 Du        
   4422 ****        24.5000  22.7500  62.5000 Du        
   4423 ****        24.5000  23.0000  60.2500 Du        
   4424 ****        24.5000  23.0000  60.5000 Du        
   4425 ****        24.5000  23.0000  60.7500 Du        
   4426 ****        24.5000  23.0000  61.0000 Du        
   4427 ****        24.5000  23.0000  61.2500 Du        
   4428 ****        24.5000  23.0000  61.5000 Du        
   4429 ****        24.5000  23.0000  61.7500 Du        
   4430 ****        24.5000  23.0000  62.0000 Du        
   4431 ****        24.5000  23.0000  62.2500 Du        
   4432 ****        24.5000  23.2500  59.7500 Du        
   4433 ****        24.5000  23.2500  60.0000 Du        
   4434 ****        24.5000  23.2500  60.2500 Du        
   4435 ****        24.5000  23.2500  60.5000 Du        
   4436 ****        24.5000  23.2500  60.7500 Du        
   4437 ****        24.5000  23.2500  61.0000 Du        
   4438 ****        24.5000  23.2500  61.2500 Du        
   4439 ****        24.5000  23.2500  61.5000 Du        
   4440 ****        24.5000  23.2500  61.7500 Du        
   4441 ****        24.5000  23.2500  62.0000 Du        
   4442 ****        24.5000  23.2500  62.2500 Du        
   4443 ****        24.5000  23.5000  59.0000 Du        
   4444 ****        24.5000  23.5000  59.2500 Du        
   4445 ****        24.5000  23.5000  59.5000 Du        
   4446 ****        24.5000  23.5000  59.7500 Du        
   4447 ****        24.5000  23.5000  60.0000 Du        
   4448 ****        24.5000  23.5000  60.2500 Du        
   4449 ****        24.5000  23.5000  60.5000 Du        
   4450 ****        24.5000  23.5000  60.7500 Du        
   4451 ****        24.5000  23.5000  61.0000 Du        
   4452 ****        24.5000  23.5000  61.2500 Du        
   4453 ****        24.5000  23.5000  61.5000 Du        
   4454 ****        24.5000  23.5000  61.7500 Du        
   4455 ****        24.5000  23.5000  62.0000 Du        
   4456 ****        24.5000  23.7500  59.2500 Du        
   4457 ****        24.5000  23.7500  59.5000 Du        
   4458 ****        24.5000  23.7500  59.7500 Du        
   4459 ****        24.5000  23.7500  60.0000 Du        
   4460 ****        24.5000  23.7500  60.2500 Du        
   4461 ****        24.5000  23.7500  60.5000 Du        
   4462 ****        24.5000  23.7500  60.7500 Du        
   4463 ****        24.5000  23.7500  61.0000 Du        
   4464 ****        24.5000  23.7500  61.2500 Du        
   4465 ****        24.5000  23.7500  61.5000 Du        
   4466 ****        24.5000  23.7500  61.7500 Du        
   4467 ****        24.5000  24.0000  60.2500 Du        
   4468 ****        24.5000  24.0000  60.5000 Du        
   4469 ****        24.5000  24.0000  60.7500 Du        
   4470 ****        24.5000  24.0000  61.0000 Du        
   4471 ****        24.5000  24.0000  61.2500 Du        
   4472 ****        24.5000  24.0000  61.5000 Du        
   4473 ****        24.5000  24.0000  61.7500 Du        
   4474 ****        24.5000  33.0000  59.7500 Du        
   4475 ****        24.5000  33.0000  60.0000 Du        
   4476 ****        24.5000  33.2500  59.2500 Du        
   4477 ****        24.5000  33.2500  59.5000 Du        
   4478 ****        24.5000  33.2500  59.7500 Du        
   4479 ****        24.5000  33.2500  60.0000 Du        
   4480 ****        24.5000  33.5000  58.7500 Du        
   4481 ****        24.5000  33.5000  59.0000 Du        
   4482 ****        24.5000  33.5000  59.2500 Du        
   4483 ****        24.5000  33.5000  59.5000 Du        
   4484 ****        24.5000  33.5000  59.7500 Du        
   4485 ****        24.5000  33.5000  60.0000 Du        
   4486 ****        24.5000  33.5000  60.2500 Du        
   4487 ****        24.5000  33.7500  58.7500 Du        
   4488 ****        24.5000  33.7500  59.0000 Du        
   4489 ****        24.5000  33.7500  59.2500 Du        
   4490 ****        24.5000  33.7500  59.5000 Du        
   4491 ****        24.5000  33.7500  59.7500 Du        
   4492 ****        24.5000  33.7500  60.0000 Du        
   4493 ****        24.5000  33.7500  60.2500 Du        
   4494 ****        24.5000  34.0000  59.0000 Du        
   4495 ****        24.5000  34.0000  59.2500 Du        
   4496 ****        24.5000  34.0000  59.5000 Du        
   4497 ****        24.5000  34.0000  59.7500 Du        
   4498 ****        24.5000  34.0000  60.0000 Du        
   4499 ****        24.5000  34.0000  60.2500 Du        
   4500 ****        24.5000  34.2500  60.0000 Du        
   4501 ****        24.5000  34.2500  60.2500 Du        
   4502 ****        24.7500  19.0000  63.7500 Du        
   4503 ****        24.7500  19.0000  64.0000 Du        
   4504 ****        24.7500  19.0000  64.2500 Du        
   4505 ****        24.7500  19.2500  63.5000 Du        
   4506 ****        24.7500  19.2500  63.7500 Du        
   4507 ****        24.7500  19.2500  64.0000 Du        
   4508 ****        24.7500  19.2500  64.2500 Du        
   4509 ****        24.7500  19.2500  64.5000 Du        
   4510 ****        24.7500  19.2500  64.7500 Du        
   4511 ****        24.7500  19.5000  63.2500 Du        
   4512 ****        24.7500  19.5000  63.5000 Du        
   4513 ****        24.7500  19.5000  63.7500 Du        
   4514 ****        24.7500  19.5000  64.0000 Du        
   4515 ****        24.7500  19.5000  64.2500 Du        
   4516 ****        24.7500  19.5000  64.5000 Du        
   4517 ****        24.7500  19.5000  64.7500 Du        
   4518 ****        24.7500  19.5000  65.0000 Du        
   4519 ****        24.7500  19.7500  63.0000 Du        
   4520 ****        24.7500  19.7500  63.2500 Du        
   4521 ****        24.7500  19.7500  63.5000 Du        
   4522 ****        24.7500  19.7500  63.7500 Du        
   4523 ****        24.7500  19.7500  64.0000 Du        
   4524 ****        24.7500  19.7500  64.2500 Du        
   4525 ****        24.7500  19.7500  64.5000 Du        
   4526 ****        24.7500  19.7500  64.7500 Du        
   4527 ****        24.7500  19.7500  65.0000 Du        
   4528 ****        24.7500  19.7500  65.2500 Du        
   4529 ****        24.7500  19.7500  65.5000 Du        
   4530 ****        24.7500  20.0000  62.7500 Du        
   4531 ****        24.7500  20.0000  63.0000 Du        
   4532 ****        24.7500  20.0000  63.2500 Du        
   4533 ****        24.7500  20.0000  63.5000 Du        
   4534 ****        24.7500  20.0000  63.7500 Du        
   4535 ****        24.7500  20.0000  64.0000 Du        
   4536 ****        24.7500  20.0000  64.2500 Du        
   4537 ****        24.7500  20.0000  64.5000 Du        
   4538 ****        24.7500  20.0000  64.7500 Du        
   4539 ****        24.7500  20.0000  65.0000 Du        
   4540 ****        24.7500  20.0000  65.2500 Du        
   4541 ****        24.7500  20.0000  65.5000 Du        
   4542 ****        24.7500  20.0000  65.7500 Du        
   4543 ****        24.7500  20.0000  66.0000 Du        
   4544 ****        24.7500  20.2500  62.2500 Du        
   4545 ****        24.7500  20.2500  62.5000 Du        
   4546 ****        24.7500  20.2500  62.7500 Du        
   4547 ****        24.7500  20.2500  63.0000 Du        
   4548 ****        24.7500  20.2500  63.2500 Du        
   4549 ****        24.7500  20.2500  63.5000 Du        
   4550 ****        24.7500  20.2500  63.7500 Du        
   4551 ****        24.7500  20.2500  64.0000 Du        
   4552 ****        24.7500  20.2500  64.2500 Du        
   4553 ****        24.7500  20.2500  64.5000 Du        
   4554 ****        24.7500  20.2500  64.7500 Du        
   4555 ****        24.7500  20.2500  65.0000 Du        
   4556 ****        24.7500  20.2500  65.2500 Du        
   4557 ****        24.7500  20.2500  65.5000 Du        
   4558 ****        24.7500  20.2500  65.7500 Du        
   4559 ****        24.7500  20.2500  66.0000 Du        
   4560 ****        24.7500  20.5000  62.0000 Du        
   4561 ****        24.7500  20.5000  62.2500 Du        
   4562 ****        24.7500  20.5000  62.5000 Du        
   4563 ****        24.7500  20.5000  62.7500 Du        
   4564 ****        24.7500  20.5000  63.0000 Du        
   4565 ****        24.7500  20.5000  63.2500 Du        
   4566 ****        24.7500  20.5000  63.5000 Du        
   4567 ****        24.7500  20.5000  63.7500 Du        
   4568 ****        24.7500  20.5000  64.0000 Du        
   4569 ****        24.7500  20.5000  64.2500 Du        
   4570 ****        24.7500  20.5000  64.5000 Du        
   4571 ****        24.7500  20.5000  64.7500 Du        
   4572 ****        24.7500  20.5000  65.0000 Du        
   4573 ****        24.7500  20.5000  65.2500 Du        
   4574 ****        24.7500  20.7500  61.7500 Du        
   4575 ****        24.7500  20.7500  62.0000 Du        
   4576 ****        24.7500  20.7500  62.2500 Du        
   4577 ****        24.7500  20.7500  62.5000 Du        
   4578 ****        24.7500  20.7500  62.7500 Du        
   4579 ****        24.7500  20.7500  63.0000 Du        
   4580 ****        24.7500  20.7500  63.2500 Du        
   4581 ****        24.7500  20.7500  63.5000 Du        
   4582 ****        24.7500  20.7500  63.7500 Du        
   4583 ****        24.7500  20.7500  64.0000 Du        
   4584 ****        24.7500  20.7500  64.2500 Du        
   4585 ****        24.7500  20.7500  64.5000 Du        
   4586 ****        24.7500  20.7500  64.7500 Du        
   4587 ****        24.7500  21.0000  61.7500 Du        
   4588 ****        24.7500  21.0000  62.0000 Du        
   4589 ****        24.7500  21.0000  62.2500 Du        
   4590 ****        24.7500  21.0000  62.5000 Du        
   4591 ****        24.7500  21.0000  62.7500 Du        
   4592 ****        24.7500  21.0000  63.0000 Du        
   4593 ****        24.7500  21.0000  63.2500 Du        
   4594 ****        24.7500  21.0000  63.5000 Du        
   4595 ****        24.7500  21.0000  63.7500 Du        
   4596 ****        24.7500  21.0000  64.0000 Du        
   4597 ****        24.7500  21.0000  64.2500 Du        
   4598 ****        24.7500  21.0000  64.5000 Du        
   4599 ****        24.7500  21.2500  61.5000 Du        
   4600 ****        24.7500  21.2500  61.7500 Du        
   4601 ****        24.7500  21.2500  62.0000 Du        
   4602 ****        24.7500  21.2500  62.2500 Du        
   4603 ****        24.7500  21.2500  62.5000 Du        
   4604 ****        24.7500  21.2500  62.7500 Du        
   4605 ****        24.7500  21.2500  63.0000 Du        
   4606 ****        24.7500  21.2500  63.2500 Du        
   4607 ****        24.7500  21.2500  63.5000 Du        
   4608 ****        24.7500  21.2500  63.7500 Du        
   4609 ****        24.7500  21.2500  64.0000 Du        
   4610 ****        24.7500  21.2500  64.2500 Du        
   4611 ****        24.7500  21.5000  61.5000 Du        
   4612 ****        24.7500  21.5000  61.7500 Du        
   4613 ****        24.7500  21.5000  62.0000 Du        
   4614 ****        24.7500  21.5000  62.2500 Du        
   4615 ****        24.7500  21.5000  62.5000 Du        
   4616 ****        24.7500  21.5000  62.7500 Du        
   4617 ****        24.7500  21.5000  63.0000 Du        
   4618 ****        24.7500  21.5000  63.2500 Du        
   4619 ****        24.7500  21.5000  63.5000 Du        
   4620 ****        24.7500  21.5000  63.7500 Du        
   4621 ****        24.7500  21.5000  64.0000 Du        
   4622 ****        24.7500  21.7500  61.5000 Du        
   4623 ****        24.7500  21.7500  61.7500 Du        
   4624 ****        24.7500  21.7500  62.0000 Du        
   4625 ****        24.7500  21.7500  62.2500 Du        
   4626 ****        24.7500  21.7500  62.5000 Du        
   4627 ****        24.7500  21.7500  62.7500 Du        
   4628 ****        24.7500  21.7500  63.0000 Du        
   4629 ****        24.7500  21.7500  63.2500 Du        
   4630 ****        24.7500  21.7500  63.5000 Du        
   4631 ****        24.7500  21.7500  63.7500 Du        
   4632 ****        24.7500  22.0000  61.2500 Du        
   4633 ****        24.7500  22.0000  61.5000 Du        
   4634 ****        24.7500  22.0000  61.7500 Du        
   4635 ****        24.7500  22.0000  62.0000 Du        
   4636 ****        24.7500  22.0000  62.2500 Du        
   4637 ****        24.7500  22.0000  62.5000 Du        
   4638 ****        24.7500  22.0000  62.7500 Du        
   4639 ****        24.7500  22.0000  63.0000 Du        
   4640 ****        24.7500  22.0000  63.2500 Du        
   4641 ****        24.7500  22.2500  61.0000 Du        
   4642 ****        24.7500  22.2500  61.2500 Du        
   4643 ****        24.7500  22.2500  61.5000 Du        
   4644 ****        24.7500  22.2500  61.7500 Du        
   4645 ****        24.7500  22.2500  62.0000 Du        
   4646 ****        24.7500  22.2500  62.2500 Du        
   4647 ****        24.7500  22.2500  62.5000 Du        
   4648 ****        24.7500  22.2500  62.7500 Du        
   4649 ****        24.7500  22.2500  63.0000 Du        
   4650 ****        24.7500  22.2500  63.2500 Du        
   4651 ****        24.7500  22.5000  61.0000 Du        
   4652 ****        24.7500  22.5000  61.2500 Du        
   4653 ****        24.7500  22.5000  61.5000 Du        
   4654 ****        24.7500  22.5000  61.7500 Du        
   4655 ****        24.7500  22.5000  62.0000 Du        
   4656 ****        24.7500  22.5000  62.2500 Du        
   4657 ****        24.7500  22.5000  62.5000 Du        
   4658 ****        24.7500  22.5000  62.7500 Du        
   4659 ****        24.7500  22.7500  60.7500 Du        
   4660 ****        24.7500  22.7500  61.0000 Du        
   4661 ****        24.7500  22.7500  61.2500 Du        
   4662 ****        24.7500  22.7500  61.5000 Du        
   4663 ****        24.7500  22.7500  61.7500 Du        
   4664 ****        24.7500  22.7500  62.0000 Du        
   4665 ****        24.7500  22.7500  62.2500 Du        
   4666 ****        24.7500  22.7500  62.5000 Du        
   4667 ****        24.7500  23.0000  60.2500 Du        
   4668 ****        24.7500  23.0000  60.5000 Du        
   4669 ****        24.7500  23.0000  60.7500 Du        
   4670 ****        24.7500  23.0000  61.0000 Du        
   4671 ****        24.7500  23.0000  61.2500 Du        
   4672 ****        24.7500  23.0000  61.5000 Du        
   4673 ****        24.7500  23.0000  61.7500 Du        
   4674 ****        24.7500  23.0000  62.0000 Du        
   4675 ****        24.7500  23.0000  62.2500 Du        
   4676 ****        24.7500  23.2500  60.0000 Du        
   4677 ****        24.7500  23.2500  60.2500 Du        
   4678 ****        24.7500  23.2500  60.5000 Du        
   4679 ****        24.7500  23.2500  60.7500 Du        
   4680 ****        24.7500  23.2500  61.0000 Du        
   4681 ****        24.7500  23.2500  61.2500 Du        
   4682 ****        24.7500  23.2500  61.5000 Du        
   4683 ****        24.7500  23.2500  61.7500 Du        
   4684 ****        24.7500  23.2500  62.0000 Du        
   4685 ****        24.7500  23.2500  62.2500 Du        
   4686 ****        24.7500  23.5000  59.2500 Du        
   4687 ****        24.7500  23.5000  59.5000 Du        
   4688 ****        24.7500  23.5000  59.7500 Du        
   4689 ****        24.7500  23.5000  60.0000 Du        
   4690 ****        24.7500  23.5000  60.2500 Du        
   4691 ****        24.7500  23.5000  60.5000 Du        
   4692 ****        24.7500  23.5000  60.7500 Du        
   4693 ****        24.7500  23.5000  61.0000 Du        
   4694 ****        24.7500  23.5000  61.2500 Du        
   4695 ****        24.7500  23.5000  61.5000 Du        
   4696 ****        24.7500  23.5000  61.7500 Du        
   4697 ****        24.7500  23.5000  62.0000 Du        
   4698 ****        24.7500  23.7500  58.7500 Du        
   4699 ****        24.7500  23.7500  59.0000 Du        
   4700 ****        24.7500  23.7500  59.2500 Du        
   4701 ****        24.7500  23.7500  59.5000 Du        
   4702 ****        24.7500  23.7500  59.7500 Du        
   4703 ****        24.7500  23.7500  60.0000 Du        
   4704 ****        24.7500  23.7500  60.2500 Du        
   4705 ****        24.7500  23.7500  60.5000 Du        
   4706 ****        24.7500  23.7500  60.7500 Du        
   4707 ****        24.7500  23.7500  61.0000 Du        
   4708 ****        24.7500  23.7500  61.2500 Du        
   4709 ****        24.7500  23.7500  61.5000 Du        
   4710 ****        24.7500  23.7500  61.7500 Du        
   4711 ****        24.7500  23.7500  62.0000 Du        
   4712 ****        24.7500  24.0000  59.2500 Du        
   4713 ****        24.7500  24.0000  59.5000 Du        
   4714 ****        24.7500  24.0000  59.7500 Du        
   4715 ****        24.7500  24.0000  60.0000 Du        
   4716 ****        24.7500  24.0000  60.2500 Du        
   4717 ****        24.7500  24.0000  60.5000 Du        
   4718 ****        24.7500  24.0000  60.7500 Du        
   4719 ****        24.7500  24.0000  61.0000 Du        
   4720 ****        24.7500  24.0000  61.2500 Du        
   4721 ****        24.7500  24.0000  61.5000 Du        
   4722 ****        24.7500  24.0000  61.7500 Du        
   4723 ****        24.7500  24.2500  61.0000 Du        
   4724 ****        24.7500  24.2500  61.2500 Du        
   4725 ****        24.7500  33.2500  60.0000 Du        
   4726 ****        24.7500  33.5000  59.7500 Du        
   4727 ****        24.7500  33.5000  60.0000 Du        
   4728 ****        24.7500  33.5000  60.2500 Du        
   4729 ****        24.7500  33.7500  59.7500 Du        
   4730 ****        24.7500  33.7500  60.0000 Du        
   4731 ****        24.7500  33.7500  60.2500 Du        
   4732 ****        24.7500  34.0000  60.0000 Du        
   4733 ****        24.7500  34.0000  60.2500 Du        
   4734 ****        25.0000  19.2500  63.7500 Du        
   4735 ****        25.0000  19.2500  64.0000 Du        
   4736 ****        25.0000  19.2500  64.2500 Du        
   4737 ****        25.0000  19.2500  64.5000 Du        
   4738 ****        25.0000  19.5000  63.5000 Du        
   4739 ****        25.0000  19.5000  63.7500 Du        
   4740 ****        25.0000  19.5000  64.0000 Du        
   4741 ****        25.0000  19.5000  64.2500 Du        
   4742 ****        25.0000  19.5000  64.5000 Du        
   4743 ****        25.0000  19.5000  64.7500 Du        
   4744 ****        25.0000  19.7500  63.2500 Du        
   4745 ****        25.0000  19.7500  63.5000 Du        
   4746 ****        25.0000  19.7500  63.7500 Du        
   4747 ****        25.0000  19.7500  64.0000 Du        
   4748 ****        25.0000  19.7500  64.2500 Du        
   4749 ****        25.0000  19.7500  64.5000 Du        
   4750 ****        25.0000  19.7500  64.7500 Du        
   4751 ****        25.0000  19.7500  65.0000 Du        
   4752 ****        25.0000  20.0000  63.0000 Du        
   4753 ****        25.0000  20.0000  63.2500 Du        
   4754 ****        25.0000  20.0000  63.5000 Du        
   4755 ****        25.0000  20.0000  63.7500 Du        
   4756 ****        25.0000  20.0000  64.0000 Du        
   4757 ****        25.0000  20.0000  64.2500 Du        
   4758 ****        25.0000  20.0000  64.5000 Du        
   4759 ****        25.0000  20.0000  64.7500 Du        
   4760 ****        25.0000  20.0000  65.0000 Du        
   4761 ****        25.0000  20.0000  65.2500 Du        
   4762 ****        25.0000  20.2500  62.7500 Du        
   4763 ****        25.0000  20.2500  63.0000 Du        
   4764 ****        25.0000  20.2500  63.2500 Du        
   4765 ****        25.0000  20.2500  63.5000 Du        
   4766 ****        25.0000  20.2500  63.7500 Du        
   4767 ****        25.0000  20.2500  64.0000 Du        
   4768 ****        25.0000  20.2500  64.2500 Du        
   4769 ****        25.0000  20.2500  64.5000 Du        
   4770 ****        25.0000  20.2500  64.7500 Du        
   4771 ****        25.0000  20.2500  65.0000 Du        
   4772 ****        25.0000  20.2500  65.2500 Du        
   4773 ****        25.0000  20.2500  65.5000 Du        
   4774 ****        25.0000  20.5000  62.5000 Du        
   4775 ****        25.0000  20.5000  62.7500 Du        
   4776 ****        25.0000  20.5000  63.0000 Du        
   4777 ****        25.0000  20.5000  63.2500 Du        
   4778 ****        25.0000  20.5000  63.5000 Du        
   4779 ****        25.0000  20.5000  63.7500 Du        
   4780 ****        25.0000  20.5000  64.0000 Du        
   4781 ****        25.0000  20.5000  64.2500 Du        
   4782 ****        25.0000  20.5000  64.5000 Du        
   4783 ****        25.0000  20.5000  64.7500 Du        
   4784 ****        25.0000  20.5000  65.0000 Du        
   4785 ****        25.0000  20.5000  67.2500 Du        
   4786 ****        25.0000  20.7500  61.7500 Du        
   4787 ****        25.0000  20.7500  62.0000 Du        
   4788 ****        25.0000  20.7500  62.2500 Du        
   4789 ****        25.0000  20.7500  62.5000 Du        
   4790 ****        25.0000  20.7500  62.7500 Du        
   4791 ****        25.0000  20.7500  63.0000 Du        
   4792 ****        25.0000  20.7500  63.2500 Du        
   4793 ****        25.0000  20.7500  63.5000 Du        
   4794 ****        25.0000  20.7500  63.7500 Du        
   4795 ****        25.0000  20.7500  64.0000 Du        
   4796 ****        25.0000  20.7500  64.2500 Du        
   4797 ****        25.0000  20.7500  64.5000 Du        
   4798 ****        25.0000  20.7500  64.7500 Du        
   4799 ****        25.0000  21.0000  61.7500 Du        
   4800 ****        25.0000  21.0000  62.0000 Du        
   4801 ****        25.0000  21.0000  62.2500 Du        
   4802 ****        25.0000  21.0000  62.5000 Du        
   4803 ****        25.0000  21.0000  62.7500 Du        
   4804 ****        25.0000  21.0000  63.0000 Du        
   4805 ****        25.0000  21.0000  63.2500 Du        
   4806 ****        25.0000  21.0000  63.5000 Du        
   4807 ****        25.0000  21.0000  63.7500 Du        
   4808 ****        25.0000  21.0000  64.0000 Du        
   4809 ****        25.0000  21.0000  64.2500 Du        
   4810 ****        25.0000  21.2500  61.7500 Du        
   4811 ****        25.0000  21.2500  62.0000 Du        
   4812 ****        25.0000  21.2500  62.2500 Du        
   4813 ****        25.0000  21.2500  62.5000 Du        
   4814 ****        25.0000  21.2500  62.7500 Du        
   4815 ****        25.0000  21.2500  63.0000 Du        
   4816 ****        25.0000  21.2500  63.2500 Du        
   4817 ****        25.0000  21.2500  63.5000 Du        
   4818 ****        25.0000  21.2500  63.7500 Du        
   4819 ****        25.0000  21.2500  64.0000 Du        
   4820 ****        25.0000  21.5000  61.5000 Du        
   4821 ****        25.0000  21.5000  61.7500 Du        
   4822 ****        25.0000  21.5000  62.0000 Du        
   4823 ****        25.0000  21.5000  62.2500 Du        
   4824 ****        25.0000  21.5000  62.5000 Du        
   4825 ****        25.0000  21.5000  62.7500 Du        
   4826 ****        25.0000  21.5000  63.0000 Du        
   4827 ****        25.0000  21.5000  63.2500 Du        
   4828 ****        25.0000  21.5000  63.5000 Du        
   4829 ****        25.0000  21.5000  63.7500 Du        
   4830 ****        25.0000  21.7500  61.5000 Du        
   4831 ****        25.0000  21.7500  61.7500 Du        
   4832 ****        25.0000  21.7500  62.0000 Du        
   4833 ****        25.0000  21.7500  62.2500 Du        
   4834 ****        25.0000  21.7500  62.5000 Du        
   4835 ****        25.0000  21.7500  62.7500 Du        
   4836 ****        25.0000  21.7500  63.0000 Du        
   4837 ****        25.0000  21.7500  63.2500 Du        
   4838 ****        25.0000  21.7500  63.5000 Du        
   4839 ****        25.0000  22.0000  61.2500 Du        
   4840 ****        25.0000  22.0000  61.5000 Du        
   4841 ****        25.0000  22.0000  61.7500 Du        
   4842 ****        25.0000  22.0000  62.0000 Du        
   4843 ****        25.0000  22.0000  62.2500 Du        
   4844 ****        25.0000  22.0000  62.5000 Du        
   4845 ****        25.0000  22.0000  62.7500 Du        
   4846 ****        25.0000  22.0000  63.0000 Du        
   4847 ****        25.0000  22.0000  63.2500 Du        
   4848 ****        25.0000  22.2500  61.2500 Du        
   4849 ****        25.0000  22.2500  61.5000 Du        
   4850 ****        25.0000  22.2500  61.7500 Du        
   4851 ****        25.0000  22.2500  62.0000 Du        
   4852 ****        25.0000  22.2500  62.2500 Du        
   4853 ****        25.0000  22.2500  62.5000 Du        
   4854 ****        25.0000  22.2500  62.7500 Du        
   4855 ****        25.0000  22.2500  63.0000 Du        
   4856 ****        25.0000  22.5000  61.2500 Du        
   4857 ****        25.0000  22.5000  61.5000 Du        
   4858 ****        25.0000  22.5000  61.7500 Du        
   4859 ****        25.0000  22.5000  62.0000 Du        
   4860 ****        25.0000  22.5000  62.2500 Du        
   4861 ****        25.0000  22.5000  62.5000 Du        
   4862 ****        25.0000  22.5000  62.7500 Du        
   4863 ****        25.0000  22.7500  61.0000 Du        
   4864 ****        25.0000  22.7500  61.2500 Du        
   4865 ****        25.0000  22.7500  61.5000 Du        
   4866 ****        25.0000  22.7500  61.7500 Du        
   4867 ****        25.0000  22.7500  62.0000 Du        
   4868 ****        25.0000  22.7500  62.2500 Du        
   4869 ****        25.0000  22.7500  62.5000 Du        
   4870 ****        25.0000  22.7500  62.7500 Du        
   4871 ****        25.0000  23.0000  60.7500 Du        
   4872 ****        25.0000  23.0000  61.0000 Du        
   4873 ****        25.0000  23.0000  61.2500 Du        
   4874 ****        25.0000  23.0000  61.5000 Du        
   4875 ****        25.0000  23.0000  61.7500 Du        
   4876 ****        25.0000  23.0000  62.0000 Du        
   4877 ****        25.0000  23.0000  62.2500 Du        
   4878 ****        25.0000  23.0000  62.5000 Du        
   4879 ****        25.0000  23.2500  60.2500 Du        
   4880 ****        25.0000  23.2500  60.5000 Du        
   4881 ****        25.0000  23.2500  60.7500 Du        
   4882 ****        25.0000  23.2500  61.0000 Du        
   4883 ****        25.0000  23.2500  61.2500 Du        
   4884 ****        25.0000  23.2500  61.5000 Du        
   4885 ****        25.0000  23.2500  61.7500 Du        
   4886 ****        25.0000  23.2500  62.0000 Du        
   4887 ****        25.0000  23.2500  62.2500 Du        
   4888 ****        25.0000  23.5000  59.7500 Du        
   4889 ****        25.0000  23.5000  60.0000 Du        
   4890 ****        25.0000  23.5000  60.2500 Du        
   4891 ****        25.0000  23.5000  60.5000 Du        
   4892 ****        25.0000  23.5000  60.7500 Du        
   4893 ****        25.0000  23.5000  61.0000 Du        
   4894 ****        25.0000  23.5000  61.2500 Du        
   4895 ****        25.0000  23.5000  61.5000 Du        
   4896 ****        25.0000  23.5000  61.7500 Du        
   4897 ****        25.0000  23.5000  62.0000 Du        
   4898 ****        25.0000  23.7500  58.7500 Du        
   4899 ****        25.0000  23.7500  59.0000 Du        
   4900 ****        25.0000  23.7500  59.2500 Du        
   4901 ****        25.0000  23.7500  59.5000 Du        
   4902 ****        25.0000  23.7500  59.7500 Du        
   4903 ****        25.0000  23.7500  60.0000 Du        
   4904 ****        25.0000  23.7500  60.2500 Du        
   4905 ****        25.0000  23.7500  60.5000 Du        
   4906 ****        25.0000  23.7500  60.7500 Du        
   4907 ****        25.0000  23.7500  61.0000 Du        
   4908 ****        25.0000  23.7500  61.2500 Du        
   4909 ****        25.0000  23.7500  61.5000 Du        
   4910 ****        25.0000  23.7500  61.7500 Du        
   4911 ****        25.0000  23.7500  62.0000 Du        
   4912 ****        25.0000  24.0000  59.0000 Du        
   4913 ****        25.0000  24.0000  59.2500 Du        
   4914 ****        25.0000  24.0000  59.5000 Du        
   4915 ****        25.0000  24.0000  59.7500 Du        
   4916 ****        25.0000  24.0000  60.0000 Du        
   4917 ****        25.0000  24.0000  60.2500 Du        
   4918 ****        25.0000  24.0000  60.5000 Du        
   4919 ****        25.0000  24.0000  60.7500 Du        
   4920 ****        25.0000  24.0000  61.0000 Du        
   4921 ****        25.0000  24.0000  61.2500 Du        
   4922 ****        25.0000  24.0000  61.5000 Du        
   4923 ****        25.0000  24.0000  61.7500 Du        
   4924 ****        25.0000  24.0000  62.0000 Du        
   4925 ****        25.0000  24.2500  59.7500 Du        
   4926 ****        25.0000  24.2500  60.0000 Du        
   4927 ****        25.0000  24.2500  60.2500 Du        
   4928 ****        25.0000  24.2500  60.5000 Du        
   4929 ****        25.0000  24.2500  60.7500 Du        
   4930 ****        25.0000  24.2500  61.0000 Du        
   4931 ****        25.0000  24.2500  61.2500 Du        
   4932 ****        25.2500  19.5000  63.7500 Du        
   4933 ****        25.2500  19.5000  64.0000 Du        
   4934 ****        25.2500  19.5000  64.2500 Du        
   4935 ****        25.2500  19.5000  64.5000 Du        
   4936 ****        25.2500  19.7500  63.5000 Du        
   4937 ****        25.2500  19.7500  63.7500 Du        
   4938 ****        25.2500  19.7500  64.0000 Du        
   4939 ****        25.2500  19.7500  64.2500 Du        
   4940 ****        25.2500  19.7500  64.5000 Du        
   4941 ****        25.2500  20.0000  63.2500 Du        
   4942 ****        25.2500  20.0000  63.5000 Du        
   4943 ****        25.2500  20.0000  63.7500 Du        
   4944 ****        25.2500  20.0000  64.0000 Du        
   4945 ****        25.2500  20.0000  64.2500 Du        
   4946 ****        25.2500  20.0000  64.5000 Du        
   4947 ****        25.2500  20.0000  64.7500 Du        
   4948 ****        25.2500  20.2500  63.0000 Du        
   4949 ****        25.2500  20.2500  63.2500 Du        
   4950 ****        25.2500  20.2500  63.5000 Du        
   4951 ****        25.2500  20.2500  63.7500 Du        
   4952 ****        25.2500  20.2500  64.0000 Du        
   4953 ****        25.2500  20.2500  64.2500 Du        
   4954 ****        25.2500  20.2500  64.5000 Du        
   4955 ****        25.2500  20.2500  64.7500 Du        
   4956 ****        25.2500  20.5000  62.7500 Du        
   4957 ****        25.2500  20.5000  63.0000 Du        
   4958 ****        25.2500  20.5000  63.2500 Du        
   4959 ****        25.2500  20.5000  63.5000 Du        
   4960 ****        25.2500  20.5000  63.7500 Du        
   4961 ****        25.2500  20.5000  64.0000 Du        
   4962 ****        25.2500  20.5000  64.2500 Du        
   4963 ****        25.2500  20.5000  64.5000 Du        
   4964 ****        25.2500  20.5000  67.2500 Du        
   4965 ****        25.2500  20.7500  62.2500 Du        
   4966 ****        25.2500  20.7500  62.5000 Du        
   4967 ****        25.2500  20.7500  62.7500 Du        
   4968 ****        25.2500  20.7500  63.0000 Du        
   4969 ****        25.2500  20.7500  63.2500 Du        
   4970 ****        25.2500  20.7500  63.5000 Du        
   4971 ****        25.2500  20.7500  63.7500 Du        
   4972 ****        25.2500  20.7500  64.0000 Du        
   4973 ****        25.2500  20.7500  64.2500 Du        
   4974 ****        25.2500  20.7500  67.2500 Du        
   4975 ****        25.2500  21.0000  61.7500 Du        
   4976 ****        25.2500  21.0000  62.0000 Du        
   4977 ****        25.2500  21.0000  62.2500 Du        
   4978 ****        25.2500  21.0000  62.5000 Du        
   4979 ****        25.2500  21.0000  62.7500 Du        
   4980 ****        25.2500  21.0000  63.0000 Du        
   4981 ****        25.2500  21.0000  63.2500 Du        
   4982 ****        25.2500  21.0000  63.5000 Du        
   4983 ****        25.2500  21.0000  63.7500 Du        
   4984 ****        25.2500  21.0000  64.0000 Du        
   4985 ****        25.2500  21.2500  61.7500 Du        
   4986 ****        25.2500  21.2500  62.0000 Du        
   4987 ****        25.2500  21.2500  62.2500 Du        
   4988 ****        25.2500  21.2500  62.5000 Du        
   4989 ****        25.2500  21.2500  62.7500 Du        
   4990 ****        25.2500  21.2500  63.0000 Du        
   4991 ****        25.2500  21.2500  63.2500 Du        
   4992 ****        25.2500  21.5000  61.7500 Du        
   4993 ****        25.2500  21.5000  62.0000 Du        
   4994 ****        25.2500  21.5000  62.2500 Du        
   4995 ****        25.2500  21.5000  62.5000 Du        
   4996 ****        25.2500  21.5000  62.7500 Du        
   4997 ****        25.2500  21.7500  61.7500 Du        
   4998 ****        25.2500  21.7500  62.0000 Du        
   4999 ****        25.2500  21.7500  62.2500 Du        
   5000 ****        25.2500  21.7500  62.5000 Du        
   5001 ****        25.2500  21.7500  62.7500 Du        
   5002 ****        25.2500  22.0000  61.5000 Du        
   5003 ****        25.2500  22.0000  61.7500 Du        
   5004 ****        25.2500  22.0000  62.0000 Du        
   5005 ****        25.2500  22.0000  62.2500 Du        
   5006 ****        25.2500  22.0000  62.5000 Du        
   5007 ****        25.2500  22.0000  62.7500 Du        
   5008 ****        25.2500  22.2500  61.5000 Du        
   5009 ****        25.2500  22.2500  61.7500 Du        
   5010 ****        25.2500  22.2500  62.0000 Du        
   5011 ****        25.2500  22.2500  62.2500 Du        
   5012 ****        25.2500  22.2500  62.5000 Du        
   5013 ****        25.2500  22.2500  62.7500 Du        
   5014 ****        25.2500  22.5000  61.5000 Du        
   5015 ****        25.2500  22.5000  61.7500 Du        
   5016 ****        25.2500  22.5000  62.0000 Du        
   5017 ****        25.2500  22.5000  62.2500 Du        
   5018 ****        25.2500  22.5000  62.5000 Du        
   5019 ****        25.2500  22.5000  62.7500 Du        
   5020 ****        25.2500  22.7500  61.0000 Du        
   5021 ****        25.2500  22.7500  61.2500 Du        
   5022 ****        25.2500  22.7500  61.5000 Du        
   5023 ****        25.2500  22.7500  61.7500 Du        
   5024 ****        25.2500  22.7500  62.0000 Du        
   5025 ****        25.2500  22.7500  62.2500 Du        
   5026 ****        25.2500  22.7500  62.5000 Du        
   5027 ****        25.2500  22.7500  62.7500 Du        
   5028 ****        25.2500  23.0000  60.7500 Du        
   5029 ****        25.2500  23.0000  61.0000 Du        
   5030 ****        25.2500  23.0000  61.2500 Du        
   5031 ****        25.2500  23.0000  61.5000 Du        
   5032 ****        25.2500  23.0000  61.7500 Du        
   5033 ****        25.2500  23.0000  62.0000 Du        
   5034 ****        25.2500  23.0000  62.2500 Du        
   5035 ****        25.2500  23.0000  62.5000 Du        
   5036 ****        25.2500  23.2500  60.5000 Du        
   5037 ****        25.2500  23.2500  60.7500 Du        
   5038 ****        25.2500  23.2500  61.0000 Du        
   5039 ****        25.2500  23.2500  61.2500 Du        
   5040 ****        25.2500  23.2500  61.5000 Du        
   5041 ****        25.2500  23.2500  61.7500 Du        
   5042 ****        25.2500  23.2500  62.0000 Du        
   5043 ****        25.2500  23.2500  62.2500 Du        
   5044 ****        25.2500  23.5000  60.0000 Du        
   5045 ****        25.2500  23.5000  60.2500 Du        
   5046 ****        25.2500  23.5000  60.5000 Du        
   5047 ****        25.2500  23.5000  60.7500 Du        
   5048 ****        25.2500  23.5000  61.0000 Du        
   5049 ****        25.2500  23.5000  61.2500 Du        
   5050 ****        25.2500  23.5000  61.5000 Du        
   5051 ****        25.2500  23.5000  61.7500 Du        
   5052 ****        25.2500  23.5000  62.0000 Du        
   5053 ****        25.2500  23.7500  59.0000 Du        
   5054 ****        25.2500  23.7500  59.2500 Du        
   5055 ****        25.2500  23.7500  59.5000 Du        
   5056 ****        25.2500  23.7500  59.7500 Du        
   5057 ****        25.2500  23.7500  60.0000 Du        
   5058 ****        25.2500  23.7500  60.2500 Du        
   5059 ****        25.2500  23.7500  60.5000 Du        
   5060 ****        25.2500  23.7500  60.7500 Du        
   5061 ****        25.2500  23.7500  61.0000 Du        
   5062 ****        25.2500  23.7500  61.2500 Du        
   5063 ****        25.2500  23.7500  61.5000 Du        
   5064 ****        25.2500  23.7500  61.7500 Du        
   5065 ****        25.2500  23.7500  62.0000 Du        
   5066 ****        25.2500  24.0000  59.0000 Du        
   5067 ****        25.2500  24.0000  59.2500 Du        
   5068 ****        25.2500  24.0000  59.5000 Du        
   5069 ****        25.2500  24.0000  59.7500 Du        
   5070 ****        25.2500  24.0000  60.0000 Du        
   5071 ****        25.2500  24.0000  60.2500 Du        
   5072 ****        25.2500  24.0000  60.5000 Du        
   5073 ****        25.2500  24.0000  60.7500 Du        
   5074 ****        25.2500  24.0000  61.0000 Du        
   5075 ****        25.2500  24.0000  61.2500 Du        
   5076 ****        25.2500  24.0000  61.5000 Du        
   5077 ****        25.2500  24.0000  61.7500 Du        
   5078 ****        25.2500  24.0000  62.0000 Du        
   5079 ****        25.2500  24.2500  59.2500 Du        
   5080 ****        25.2500  24.2500  59.5000 Du        
   5081 ****        25.2500  24.2500  59.7500 Du        
   5082 ****        25.2500  24.2500  60.0000 Du        
   5083 ****        25.2500  24.2500  60.2500 Du        
   5084 ****        25.2500  24.2500  60.5000 Du        
   5085 ****        25.2500  24.2500  60.7500 Du        
   5086 ****        25.2500  24.2500  61.0000 Du        
   5087 ****        25.2500  24.2500  61.2500 Du        
   5088 ****        25.2500  24.5000  60.2500 Du        
   5089 ****        25.5000  19.7500  63.7500 Du        
   5090 ****        25.5000  19.7500  64.0000 Du        
   5091 ****        25.5000  19.7500  64.2500 Du        
   5092 ****        25.5000  20.0000  63.5000 Du        
   5093 ****        25.5000  20.0000  63.7500 Du        
   5094 ****        25.5000  20.0000  64.0000 Du        
   5095 ****        25.5000  20.0000  64.2500 Du        
   5096 ****        25.5000  20.2500  63.5000 Du        
   5097 ****        25.5000  20.2500  63.7500 Du        
   5098 ****        25.5000  20.2500  64.0000 Du        
   5099 ****        25.5000  21.2500  62.0000 Du        
   5100 ****        25.5000  22.0000  61.7500 Du        
   5101 ****        25.5000  22.0000  62.0000 Du        
   5102 ****        25.5000  22.0000  62.2500 Du        
   5103 ****        25.5000  22.2500  61.7500 Du        
   5104 ****        25.5000  22.2500  62.0000 Du        
   5105 ****        25.5000  22.5000  61.7500 Du        
   5106 ****        25.5000  22.5000  62.0000 Du        
   5107 ****        25.5000  22.5000  62.2500 Du        
   5108 ****        25.5000  22.7500  61.2500 Du        
   5109 ****        25.5000  22.7500  61.5000 Du        
   5110 ****        25.5000  22.7500  61.7500 Du        
   5111 ****        25.5000  22.7500  62.0000 Du        
   5112 ****        25.5000  22.7500  62.2500 Du        
   5113 ****        25.5000  23.0000  61.2500 Du        
   5114 ****        25.5000  23.0000  61.5000 Du        
   5115 ****        25.5000  23.0000  61.7500 Du        
   5116 ****        25.5000  23.0000  62.0000 Du        
   5117 ****        25.5000  23.0000  62.2500 Du        
   5118 ****        25.5000  23.2500  61.0000 Du        
   5119 ****        25.5000  23.2500  61.2500 Du        
   5120 ****        25.5000  23.2500  61.5000 Du        
   5121 ****        25.5000  23.2500  61.7500 Du        
   5122 ****        25.5000  23.2500  62.0000 Du        
   5123 ****        25.5000  23.2500  62.2500 Du        
   5124 ****        25.5000  23.5000  61.2500 Du        
   5125 ****        25.5000  23.5000  62.0000 Du        
   5126 ****        25.5000  23.7500  59.7500 Du        
   5127 ****        25.5000  23.7500  60.0000 Du        
   5128 ****        25.5000  23.7500  60.2500 Du        
   5129 ****        25.5000  23.7500  60.7500 Du        
   5130 ****        25.5000  23.7500  61.0000 Du        
   5131 ****        25.5000  23.7500  61.2500 Du        
   5132 ****        25.5000  24.0000  59.0000 Du        
   5133 ****        25.5000  24.0000  59.2500 Du        
   5134 ****        25.5000  24.0000  59.5000 Du        
   5135 ****        25.5000  24.0000  59.7500 Du        
   5136 ****        25.5000  24.0000  60.0000 Du        
   5137 ****        25.5000  24.0000  60.2500 Du        
   5138 ****        25.5000  24.0000  60.7500 Du        
   5139 ****        25.5000  24.0000  61.0000 Du        
   5140 ****        25.5000  24.0000  61.2500 Du        
   5141 ****        25.5000  24.2500  59.0000 Du        
   5142 ****        25.5000  24.2500  59.2500 Du        
   5143 ****        25.5000  24.2500  59.5000 Du        
   5144 ****        25.5000  24.2500  59.7500 Du        
   5145 ****        25.5000  24.2500  60.0000 Du        
   5146 ****        25.5000  24.2500  60.2500 Du        
   5147 ****        25.7500  22.7500  61.7500 Du        
   5148 ****        25.7500  22.7500  62.0000 Du        
   5149 ****        25.7500  23.0000  61.2500 Du        
   5150 ****        25.7500  23.0000  61.7500 Du        
   5151 ****        25.7500  23.0000  62.0000 Du        
   5152 ****        25.7500  23.2500  61.2500 Du        
   5153 ****        25.7500  23.2500  61.5000 Du        
   5154 ****        25.7500  23.2500  61.7500 Du        
   5155 ****        25.7500  23.2500  62.0000 Du        
   5156 ****        25.7500  23.5000  61.2500 Du        
   5157 ****        25.7500  23.5000  61.7500 Du        
   5158 ****        25.7500  23.5000  62.0000 Du        
   5159 ****        25.7500  23.7500  60.2500 Du        
   5160 ****        25.7500  23.7500  61.2500 Du        
   5161 ****        25.7500  23.7500  62.0000 Du        
   5162 ****        25.7500  24.0000  59.2500 Du        
   5163 ****        25.7500  24.0000  59.5000 Du        
   5164 ****        25.7500  24.0000  59.7500 Du        
   5165 ****        25.7500  24.0000  60.0000 Du        
   5166 ****        25.7500  24.0000  60.2500 Du        
   5167 ****        25.7500  24.0000  60.7500 Du        
   5168 ****        25.7500  24.0000  61.2500 Du        
   5169 ****        25.7500  24.2500  59.2500 Du        
   5170 ****        25.7500  24.2500  59.5000 Du        
   5171 ****        25.7500  24.2500  59.7500 Du        
   5172 ****        25.7500  24.2500  60.0000 Du        
   5173 ****        25.7500  24.2500  60.2500 Du        
   5174 ****        25.7500  24.2500  60.5000 Du        
   5175 ****        25.7500  24.2500  61.2500 Du        
   5176 ****        25.7500  24.5000  59.2500 Du        
   5177 ****        25.7500  24.5000  59.5000 Du        
   5178 ****        25.7500  24.5000  59.7500 Du        
   5179 ****        25.7500  24.5000  60.0000 Du        
   5180 ****        25.7500  24.5000  60.2500 Du        
   5181 ****        25.7500  24.7500  59.7500 Du        
   5182 ****        25.7500  24.7500  60.0000 Du        
   5183 ****        26.0000  23.2500  61.2500 Du        
   5184 ****        26.0000  23.2500  61.7500 Du        
   5185 ****        26.0000  23.7500  61.2500 Du        
   5186 ****        26.0000  24.0000  59.7500 Du        
   5187 ****        26.0000  24.0000  60.0000 Du        
   5188 ****        26.0000  24.0000  60.2500 Du        
   5189 ****        26.0000  24.0000  61.0000 Du        
   5190 ****        26.0000  24.0000  61.2500 Du        
   5191 ****        26.0000  24.2500  59.2500 Du        
   5192 ****        26.0000  24.2500  59.5000 Du        
   5193 ****        26.0000  24.2500  59.7500 Du        
   5194 ****        26.0000  24.2500  60.0000 Du        
   5195 ****        26.0000  24.2500  60.2500 Du        
   5196 ****        26.0000  24.5000  59.5000 Du        
   5197 ****        26.0000  24.5000  59.7500 Du        
   5198 ****        26.0000  24.5000  60.0000 Du        
   5199 ****        26.0000  24.5000  60.2500 Du        
   5200 ****        26.0000  24.7500  59.2500 Du        
   5201 ****        26.0000  24.7500  59.5000 Du        
   5202 ****        26.0000  24.7500  59.7500 Du        
   5203 ****        26.0000  24.7500  60.0000 Du        
   5204 ****        26.0000  24.7500  60.2500 Du        
   5205 ****        26.0000  25.0000  59.7500 Du        
   5206 ****        26.0000  25.0000  60.0000 Du        
   5207 ****        26.2500  24.0000  60.0000 Du        
   5208 ****        26.2500  24.2500  59.5000 Du        
   5209 ****        26.2500  24.2500  59.7500 Du        
   5210 ****        26.2500  24.2500  60.0000 Du        
   5211 ****        26.2500  24.2500  60.2500 Du        
   5212 ****        26.2500  24.5000  59.5000 Du        
   5213 ****        26.2500  24.5000  59.7500 Du        
   5214 ****        26.2500  24.5000  60.0000 Du        
   5215 ****        26.2500  24.5000  60.2500 Du        
   5216 ****        26.2500  24.7500  59.5000 Du        
   5217 ****        26.2500  24.7500  59.7500 Du        
   5218 ****        26.2500  24.7500  60.0000 Du        
   5219 ****        26.2500  24.7500  60.2500 Du        
   5220 ****        26.2500  25.0000  59.5000 Du        
   5221 ****        26.2500  25.0000  59.7500 Du        
   5222 ****        26.2500  25.0000  60.0000 Du        
   5223 ****        26.2500  25.0000  60.2500 Du        
   5224 ****        26.2500  25.2500  59.7500 Du        
   5225 ****        26.2500  25.2500  60.0000 Du        
   5226 ****        26.5000  24.2500  60.0000 Du        
   5227 ****        26.5000  24.2500  60.2500 Du        
   5228 ****        26.5000  24.5000  59.5000 Du        
   5229 ****        26.5000  24.5000  59.7500 Du        
   5230 ****        26.5000  24.5000  60.0000 Du        
   5231 ****        26.5000  24.5000  60.2500 Du        
   5232 ****        26.5000  24.7500  59.5000 Du        
   5233 ****        26.5000  24.7500  59.7500 Du        
   5234 ****        26.5000  24.7500  60.0000 Du        
   5235 ****        26.5000  24.7500  60.2500 Du        
   5236 ****        26.5000  25.0000  59.5000 Du        
   5237 ****        26.5000  25.0000  59.7500 Du        
   5238 ****        26.5000  25.0000  60.0000 Du        
   5239 ****        26.5000  25.0000  60.2500 Du        
   5240 ****        26.5000  25.2500  59.5000 Du        
   5241 ****        26.5000  25.2500  59.7500 Du        
   5242 ****        26.5000  25.2500  60.0000 Du        
   5243 ****        26.5000  25.5000  59.7500 Du        
   5244 ****        26.5000  25.5000  60.0000 Du        
   5245 ****        26.7500  24.2500  60.0000 Du        
   5246 ****        26.7500  24.2500  60.2500 Du        
   5247 ****        26.7500  24.5000  59.7500 Du        
   5248 ****        26.7500  24.5000  60.0000 Du        
   5249 ****        26.7500  24.5000  60.2500 Du        
   5250 ****        26.7500  24.7500  59.5000 Du        
   5251 ****        26.7500  24.7500  59.7500 Du        
   5252 ****        26.7500  24.7500  60.0000 Du        
   5253 ****        26.7500  24.7500  60.2500 Du        
   5254 ****        26.7500  25.0000  59.5000 Du        
   5255 ****        26.7500  25.0000  59.7500 Du        
   5256 ****        26.7500  25.0000  60.0000 Du        
   5257 ****        26.7500  25.0000  60.2500 Du        
   5258 ****        26.7500  25.2500  59.5000 Du        
   5259 ****        26.7500  25.2500  59.7500 Du        
   5260 ****        26.7500  25.2500  60.0000 Du        
   5261 ****        26.7500  25.2500  60.2500 Du        
   5262 ****        26.7500  25.5000  59.7500 Du        
   5263 ****        26.7500  28.0000  59.2500 Du        
   5264 ****        26.7500  28.0000  59.5000 Du        
   5265 ****        26.7500  28.0000  59.7500 Du        
   5266 ****        26.7500  28.0000  60.0000 Du        
   5267 ****        26.7500  28.2500  59.2500 Du        
   5268 ****        26.7500  28.2500  59.5000 Du        
   5269 ****        26.7500  28.2500  59.7500 Du        
   5270 ****        26.7500  28.2500  60.0000 Du        
   5271 ****        26.7500  28.5000  59.2500 Du        
   5272 ****        26.7500  28.5000  59.5000 Du        
   5273 ****        26.7500  28.5000  59.7500 Du        
   5274 ****        26.7500  28.5000  60.0000 Du        
   5275 ****        26.7500  28.7500  59.5000 Du        
   5276 ****        26.7500  28.7500  59.7500 Du        
   5277 ****        26.7500  28.7500  60.0000 Du        
   5278 ****        26.7500  28.7500  60.2500 Du        
   5279 ****        26.7500  29.0000  59.7500 Du        
   5280 ****        26.7500  29.0000  60.0000 Du        
   5281 ****        26.7500  29.0000  60.2500 Du        
   5282 ****        26.7500  29.2500  59.7500 Du        
   5283 ****        26.7500  29.2500  60.0000 Du        
   5284 ****        26.7500  29.2500  60.2500 Du        
   5285 ****        27.0000  24.5000  59.7500 Du        
   5286 ****        27.0000  24.5000  60.0000 Du        
   5287 ****        27.0000  24.5000  60.2500 Du        
   5288 ****        27.0000  24.7500  59.5000 Du        
   5289 ****        27.0000  24.7500  59.7500 Du        
   5290 ****        27.0000  24.7500  60.0000 Du        
   5291 ****        27.0000  24.7500  60.2500 Du        
   5292 ****        27.0000  25.0000  59.7500 Du        
   5293 ****        27.0000  25.0000  60.0000 Du        
   5294 ****        27.0000  25.0000  60.2500 Du        
   5295 ****        27.0000  25.2500  59.7500 Du        
   5296 ****        27.0000  25.2500  60.0000 Du        
   5297 ****        27.0000  25.2500  60.2500 Du        
   5298 ****        27.0000  27.7500  59.7500 Du        
   5299 ****        27.0000  28.0000  59.5000 Du        
   5300 ****        27.0000  28.0000  59.7500 Du        
   5301 ****        27.0000  28.0000  60.0000 Du        
   5302 ****        27.0000  28.2500  59.2500 Du        
   5303 ****        27.0000  28.2500  59.5000 Du        
   5304 ****        27.0000  28.2500  59.7500 Du        
   5305 ****        27.0000  28.2500  60.0000 Du        
   5306 ****        27.0000  28.2500  60.2500 Du        
   5307 ****        27.0000  28.5000  59.2500 Du        
   5308 ****        27.0000  28.5000  59.5000 Du        
   5309 ****        27.0000  28.5000  59.7500 Du        
   5310 ****        27.0000  28.5000  60.0000 Du        
   5311 ****        27.0000  28.7500  59.2500 Du        
   5312 ****        27.0000  28.7500  59.5000 Du        
   5313 ****        27.0000  28.7500  59.7500 Du        
   5314 ****        27.0000  28.7500  60.0000 Du        
   5315 ****        27.0000  28.7500  60.2500 Du        
   5316 ****        27.0000  29.0000  59.5000 Du        
   5317 ****        27.0000  29.0000  59.7500 Du        
   5318 ****        27.0000  29.0000  60.0000 Du        
   5319 ****        27.0000  29.0000  60.2500 Du        
   5320 ****        27.0000  29.2500  59.5000 Du        
   5321 ****        27.0000  29.2500  59.7500 Du        
   5322 ****        27.0000  29.2500  60.0000 Du        
   5323 ****        27.0000  29.2500  60.2500 Du        
   5324 ****        27.0000  29.5000  60.0000 Du        
   5325 ****        27.0000  29.5000  60.2500 Du        
   5326 ****        27.0000  29.7500  60.0000 Du        
   5327 ****        27.0000  29.7500  60.2500 Du        
   5328 ****        27.2500  24.5000  59.7500 Du        
   5329 ****        27.2500  24.5000  60.0000 Du        
   5330 ****        27.2500  24.5000  60.2500 Du        
   5331 ****        27.2500  24.7500  59.7500 Du        
   5332 ****        27.2500  24.7500  60.0000 Du        
   5333 ****        27.2500  24.7500  60.2500 Du        
   5334 ****        27.2500  25.0000  60.0000 Du        
   5335 ****        27.2500  25.0000  60.2500 Du        
   5336 ****        27.2500  28.0000  60.0000 Du        
   5337 ****        27.2500  28.2500  59.7500 Du        
   5338 ****        27.2500  28.2500  60.0000 Du        
   5339 ****        27.2500  28.5000  59.5000 Du        
   5340 ****        27.2500  28.5000  59.7500 Du        
   5341 ****        27.2500  28.5000  60.0000 Du        
   5342 ****        27.2500  28.7500  59.5000 Du        
   5343 ****        27.2500  28.7500  59.7500 Du        
   5344 ****        27.2500  28.7500  60.0000 Du        
   5345 ****        27.2500  28.7500  60.2500 Du        
   5346 ****        27.2500  29.0000  59.5000 Du        
   5347 ****        27.2500  29.0000  59.7500 Du        
   5348 ****        27.2500  29.0000  60.0000 Du        
   5349 ****        27.2500  29.0000  60.2500 Du        
   5350 ****        27.2500  29.2500  59.5000 Du        
   5351 ****        27.2500  29.2500  59.7500 Du        
   5352 ****        27.2500  29.2500  60.0000 Du        
   5353 ****        27.2500  29.2500  60.2500 Du        
   5354 ****        27.2500  29.5000  59.7500 Du        
   5355 ****        27.2500  29.5000  60.0000 Du        
   5356 ****        27.2500  29.5000  60.2500 Du        
   5357 ****        27.2500  29.7500  60.0000 Du        
   5358 ****        27.2500  29.7500  60.2500 Du        
   5359 ****        27.5000  28.7500  59.7500 Du        
   5360 ****        27.5000  28.7500  60.0000 Du        
   5361 ****        27.5000  29.0000  59.5000 Du        
   5362 ****        27.5000  29.0000  59.7500 Du        
   5363 ****        27.5000  29.0000  60.0000 Du        
   5364 ****        27.5000  29.2500  59.5000 Du        
   5365 ****        27.5000  29.2500  59.7500 Du        
   5366 ****        27.5000  29.2500  60.0000 Du        
   5367 ****        27.5000  29.2500  60.2500 Du        
   5368 ****        27.5000  29.5000  59.7500 Du        
   5369 ****        27.5000  29.5000  60.0000 Du        
   5370 ****        27.5000  29.7500  60.0000 Du        
   5371 ****        27.7500  29.0000  59.7500 Du        
   5372 ****        27.7500  29.0000  60.0000 Du        
   5373 ****        27.7500  29.2500  59.7500 Du        
   5374 ****        27.7500  29.2500  60.0000 Du        
   5375 ****        27.7500  29.5000  59.7500 Du        
   5376 ****        27.7500  29.5000  60.0000 Du        
   5377 ****        27.7500  29.7500  60.0000 Du        
   5378 ****        28.0000  29.2500  59.7500 Du        
   5379 ****        28.0000  29.2500  60.0000 Du        
   5380 ****        29.0000  16.0000  58.5000 Du        
   5381 ****        29.0000  16.0000  58.7500 Du        
   5382 ****        29.0000  16.2500  58.5000 Du        
   5383 ****        29.0000  16.2500  58.7500 Du        
   5384 ****        29.0000  16.5000  58.5000 Du        
   5385 ****        29.0000  16.5000  58.7500 Du        
   5386 ****        29.0000  16.5000  59.0000 Du        
   5387 ****        29.0000  16.7500  58.5000 Du        
   5388 ****        29.0000  16.7500  58.7500 Du        
   5389 ****        29.0000  16.7500  59.0000 Du        
   5390 ****        29.0000  17.0000  58.5000 Du        
   5391 ****        29.0000  17.0000  58.7500 Du        
   5392 ****        29.0000  17.0000  59.0000 Du        
   5393 ****        29.0000  17.2500  58.7500 Du        
   5394 ****        29.0000  17.2500  59.0000 Du        
   5395 ****        29.0000  17.5000  58.7500 Du        
   5396 ****        29.0000  17.5000  59.0000 Du        
   5397 ****        29.0000  17.7500  58.7500 Du        
   5398 ****        29.0000  17.7500  59.0000 Du        
   5399 ****        29.0000  18.0000  59.0000 Du        
   5400 ****        29.0000  18.0000  59.2500 Du        
   5401 ****        29.0000  18.2500  59.2500 Du        
   5402 ****        29.0000  18.7500  59.7500 Du        
   5403 ****        29.0000  19.0000  59.7500 Du        
   5404 ****        29.0000  19.0000  60.0000 Du        
   5405 ****        29.0000  19.2500  60.0000 Du        
   5406 ****        29.0000  19.2500  60.2500 Du        
   5407 ****        29.2500  16.0000  58.5000 Du        
   5408 ****        29.2500  16.0000  58.7500 Du        
   5409 ****        29.2500  16.0000  59.0000 Du        
   5410 ****        29.2500  16.2500  58.5000 Du        
   5411 ****        29.2500  16.2500  58.7500 Du        
   5412 ****        29.2500  16.2500  59.0000 Du        
   5413 ****        29.2500  16.5000  58.5000 Du        
   5414 ****        29.2500  16.5000  58.7500 Du        
   5415 ****        29.2500  16.5000  59.0000 Du        
   5416 ****        29.2500  16.5000  59.2500 Du        
   5417 ****        29.2500  16.7500  58.5000 Du        
   5418 ****        29.2500  16.7500  58.7500 Du        
   5419 ****        29.2500  16.7500  59.0000 Du        
   5420 ****        29.2500  16.7500  59.2500 Du        
   5421 ****        29.2500  17.0000  58.5000 Du        
   5422 ****        29.2500  17.0000  58.7500 Du        
   5423 ****        29.2500  17.0000  59.0000 Du        
   5424 ****        29.2500  17.0000  59.2500 Du        
   5425 ****        29.2500  17.2500  58.5000 Du        
   5426 ****        29.2500  17.2500  58.7500 Du        
   5427 ****        29.2500  17.2500  59.0000 Du        
   5428 ****        29.2500  17.2500  59.2500 Du        
   5429 ****        29.2500  17.2500  59.5000 Du        
   5430 ****        29.2500  17.5000  58.5000 Du        
   5431 ****        29.2500  17.5000  58.7500 Du        
   5432 ****        29.2500  17.5000  59.0000 Du        
   5433 ****        29.2500  17.5000  59.2500 Du        
   5434 ****        29.2500  17.5000  59.5000 Du        
   5435 ****        29.2500  17.7500  58.5000 Du        
   5436 ****        29.2500  17.7500  58.7500 Du        
   5437 ****        29.2500  17.7500  59.0000 Du        
   5438 ****        29.2500  17.7500  59.2500 Du        
   5439 ****        29.2500  17.7500  59.5000 Du        
   5440 ****        29.2500  18.0000  58.7500 Du        
   5441 ****        29.2500  18.0000  59.0000 Du        
   5442 ****        29.2500  18.0000  59.2500 Du        
   5443 ****        29.2500  18.0000  59.5000 Du        
   5444 ****        29.2500  18.2500  59.0000 Du        
   5445 ****        29.2500  18.2500  59.2500 Du        
   5446 ****        29.2500  18.2500  59.5000 Du        
   5447 ****        29.2500  18.2500  59.7500 Du        
   5448 ****        29.2500  18.5000  59.0000 Du        
   5449 ****        29.2500  18.5000  59.2500 Du        
   5450 ****        29.2500  18.5000  59.5000 Du        
   5451 ****        29.2500  18.5000  59.7500 Du        
   5452 ****        29.2500  18.5000  60.0000 Du        
   5453 ****        29.2500  18.7500  59.2500 Du        
   5454 ****        29.2500  18.7500  59.5000 Du        
   5455 ****        29.2500  18.7500  59.7500 Du        
   5456 ****        29.2500  18.7500  60.0000 Du        
   5457 ****        29.2500  18.7500  60.2500 Du        
   5458 ****        29.2500  19.0000  59.5000 Du        
   5459 ****        29.2500  19.0000  59.7500 Du        
   5460 ****        29.2500  19.0000  60.0000 Du        
   5461 ****        29.2500  19.0000  60.2500 Du        
   5462 ****        29.2500  19.2500  59.7500 Du        
   5463 ****        29.2500  19.2500  60.0000 Du        
   5464 ****        29.2500  19.2500  60.2500 Du        
   5465 ****        29.2500  19.5000  60.0000 Du        
   5466 ****        29.2500  19.5000  60.2500 Du        
   5467 ****        29.2500  19.5000  60.5000 Du        
   5468 ****        29.2500  19.7500  60.2500 Du        
   5469 ****        29.5000  15.7500  58.5000 Du        
   5470 ****        29.5000  15.7500  58.7500 Du        
   5471 ****        29.5000  16.0000  58.5000 Du        
   5472 ****        29.5000  16.0000  58.7500 Du        
   5473 ****        29.5000  16.0000  59.0000 Du        
   5474 ****        29.5000  16.2500  58.5000 Du        
   5475 ****        29.5000  16.2500  58.7500 Du        
   5476 ****        29.5000  16.2500  59.0000 Du        
   5477 ****        29.5000  16.2500  59.2500 Du        
   5478 ****        29.5000  16.5000  58.5000 Du        
   5479 ****        29.5000  16.5000  58.7500 Du        
   5480 ****        29.5000  16.5000  59.0000 Du        
   5481 ****        29.5000  16.5000  59.2500 Du        
   5482 ****        29.5000  16.7500  58.5000 Du        
   5483 ****        29.5000  16.7500  58.7500 Du        
   5484 ****        29.5000  16.7500  59.0000 Du        
   5485 ****        29.5000  16.7500  59.2500 Du        
   5486 ****        29.5000  16.7500  59.5000 Du        
   5487 ****        29.5000  17.0000  58.5000 Du        
   5488 ****        29.5000  17.0000  58.7500 Du        
   5489 ****        29.5000  17.0000  59.0000 Du        
   5490 ****        29.5000  17.0000  59.2500 Du        
   5491 ****        29.5000  17.0000  59.5000 Du        
   5492 ****        29.5000  17.2500  58.5000 Du        
   5493 ****        29.5000  17.2500  58.7500 Du        
   5494 ****        29.5000  17.2500  59.0000 Du        
   5495 ****        29.5000  17.2500  59.2500 Du        
   5496 ****        29.5000  17.2500  59.5000 Du        
   5497 ****        29.5000  17.2500  59.7500 Du        
   5498 ****        29.5000  17.5000  58.5000 Du        
   5499 ****        29.5000  17.5000  58.7500 Du        
   5500 ****        29.5000  17.5000  59.0000 Du        
   5501 ****        29.5000  17.5000  59.2500 Du        
   5502 ****        29.5000  17.5000  59.5000 Du        
   5503 ****        29.5000  17.5000  59.7500 Du        
   5504 ****        29.5000  17.7500  58.5000 Du        
   5505 ****        29.5000  17.7500  58.7500 Du        
   5506 ****        29.5000  17.7500  59.0000 Du        
   5507 ****        29.5000  17.7500  59.2500 Du        
   5508 ****        29.5000  17.7500  59.5000 Du        
   5509 ****        29.5000  17.7500  59.7500 Du        
   5510 ****        29.5000  18.0000  58.5000 Du        
   5511 ****        29.5000  18.0000  58.7500 Du        
   5512 ****        29.5000  18.0000  59.0000 Du        
   5513 ****        29.5000  18.0000  59.2500 Du        
   5514 ****        29.5000  18.0000  59.5000 Du        
   5515 ****        29.5000  18.0000  59.7500 Du        
   5516 ****        29.5000  18.0000  60.0000 Du        
   5517 ****        29.5000  18.2500  58.7500 Du        
   5518 ****        29.5000  18.2500  59.0000 Du        
   5519 ****        29.5000  18.2500  59.2500 Du        
   5520 ****        29.5000  18.2500  59.5000 Du        
   5521 ****        29.5000  18.2500  59.7500 Du        
   5522 ****        29.5000  18.2500  60.0000 Du        
   5523 ****        29.5000  18.5000  58.7500 Du        
   5524 ****        29.5000  18.5000  59.0000 Du        
   5525 ****        29.5000  18.5000  59.2500 Du        
   5526 ****        29.5000  18.5000  59.5000 Du        
   5527 ****        29.5000  18.5000  59.7500 Du        
   5528 ****        29.5000  18.5000  60.0000 Du        
   5529 ****        29.5000  18.7500  59.0000 Du        
   5530 ****        29.5000  18.7500  59.2500 Du        
   5531 ****        29.5000  18.7500  59.5000 Du        
   5532 ****        29.5000  18.7500  59.7500 Du        
   5533 ****        29.5000  18.7500  60.0000 Du        
   5534 ****        29.5000  18.7500  60.2500 Du        
   5535 ****        29.5000  19.0000  59.2500 Du        
   5536 ****        29.5000  19.0000  59.5000 Du        
   5537 ****        29.5000  19.0000  59.7500 Du        
   5538 ****        29.5000  19.0000  60.0000 Du        
   5539 ****        29.5000  19.0000  60.2500 Du        
   5540 ****        29.5000  19.0000  60.5000 Du        
   5541 ****        29.5000  19.2500  59.2500 Du        
   5542 ****        29.5000  19.2500  59.5000 Du        
   5543 ****        29.5000  19.2500  59.7500 Du        
   5544 ****        29.5000  19.2500  60.0000 Du        
   5545 ****        29.5000  19.2500  60.2500 Du        
   5546 ****        29.5000  19.2500  60.5000 Du        
   5547 ****        29.5000  19.5000  59.5000 Du        
   5548 ****        29.5000  19.5000  59.7500 Du        
   5549 ****        29.5000  19.5000  60.0000 Du        
   5550 ****        29.5000  19.5000  60.2500 Du        
   5551 ****        29.5000  19.5000  60.5000 Du        
   5552 ****        29.5000  19.7500  59.7500 Du        
   5553 ****        29.5000  19.7500  60.0000 Du        
   5554 ****        29.5000  19.7500  60.2500 Du        
   5555 ****        29.5000  19.7500  60.5000 Du        
   5556 ****        29.5000  20.0000  60.0000 Du        
   5557 ****        29.5000  20.0000  60.2500 Du        
   5558 ****        29.5000  23.5000  59.0000 Du        
   5559 ****        29.5000  23.5000  59.2500 Du        
   5560 ****        29.5000  23.5000  59.7500 Du        
   5561 ****        29.5000  23.5000  60.0000 Du        
   5562 ****        29.5000  23.7500  59.7500 Du        
   5563 ****        29.5000  23.7500  60.0000 Du        
   5564 ****        29.5000  24.0000  60.0000 Du        
   5565 ****        29.7500  15.5000  58.5000 Du        
   5566 ****        29.7500  15.7500  58.5000 Du        
   5567 ****        29.7500  15.7500  58.7500 Du        
   5568 ****        29.7500  15.7500  59.0000 Du        
   5569 ****        29.7500  16.0000  58.5000 Du        
   5570 ****        29.7500  16.0000  58.7500 Du        
   5571 ****        29.7500  16.0000  59.0000 Du        
   5572 ****        29.7500  16.0000  59.2500 Du        
   5573 ****        29.7500  16.2500  58.5000 Du        
   5574 ****        29.7500  16.2500  58.7500 Du        
   5575 ****        29.7500  16.2500  59.0000 Du        
   5576 ****        29.7500  16.2500  59.2500 Du        
   5577 ****        29.7500  16.2500  59.5000 Du        
   5578 ****        29.7500  16.5000  58.5000 Du        
   5579 ****        29.7500  16.5000  58.7500 Du        
   5580 ****        29.7500  16.5000  59.0000 Du        
   5581 ****        29.7500  16.5000  59.2500 Du        
   5582 ****        29.7500  16.5000  59.5000 Du        
   5583 ****        29.7500  16.7500  58.5000 Du        
   5584 ****        29.7500  16.7500  58.7500 Du        
   5585 ****        29.7500  16.7500  59.0000 Du        
   5586 ****        29.7500  16.7500  59.2500 Du        
   5587 ****        29.7500  16.7500  59.5000 Du        
   5588 ****        29.7500  16.7500  59.7500 Du        
   5589 ****        29.7500  17.0000  58.5000 Du        
   5590 ****        29.7500  17.0000  58.7500 Du        
   5591 ****        29.7500  17.0000  59.0000 Du        
   5592 ****        29.7500  17.0000  59.2500 Du        
   5593 ****        29.7500  17.0000  59.5000 Du        
   5594 ****        29.7500  17.0000  59.7500 Du        
   5595 ****        29.7500  17.2500  58.5000 Du        
   5596 ****        29.7500  17.2500  58.7500 Du        
   5597 ****        29.7500  17.2500  59.0000 Du        
   5598 ****        29.7500  17.2500  59.2500 Du        
   5599 ****        29.7500  17.2500  59.5000 Du        
   5600 ****        29.7500  17.2500  59.7500 Du        
   5601 ****        29.7500  17.2500  60.0000 Du        
   5602 ****        29.7500  17.5000  58.5000 Du        
   5603 ****        29.7500  17.5000  58.7500 Du        
   5604 ****        29.7500  17.5000  59.0000 Du        
   5605 ****        29.7500  17.5000  59.2500 Du        
   5606 ****        29.7500  17.5000  59.5000 Du        
   5607 ****        29.7500  17.5000  59.7500 Du        
   5608 ****        29.7500  17.5000  60.0000 Du        
   5609 ****        29.7500  17.7500  58.2500 Du        
   5610 ****        29.7500  17.7500  58.5000 Du        
   5611 ****        29.7500  17.7500  58.7500 Du        
   5612 ****        29.7500  17.7500  59.0000 Du        
   5613 ****        29.7500  17.7500  59.2500 Du        
   5614 ****        29.7500  17.7500  59.5000 Du        
   5615 ****        29.7500  17.7500  59.7500 Du        
   5616 ****        29.7500  17.7500  60.0000 Du        
   5617 ****        29.7500  18.0000  58.5000 Du        
   5618 ****        29.7500  18.0000  58.7500 Du        
   5619 ****        29.7500  18.0000  59.0000 Du        
   5620 ****        29.7500  18.0000  59.2500 Du        
   5621 ****        29.7500  18.0000  59.5000 Du        
   5622 ****        29.7500  18.0000  59.7500 Du        
   5623 ****        29.7500  18.0000  60.0000 Du        
   5624 ****        29.7500  18.0000  60.2500 Du        
   5625 ****        29.7500  18.2500  58.5000 Du        
   5626 ****        29.7500  18.2500  58.7500 Du        
   5627 ****        29.7500  18.2500  59.0000 Du        
   5628 ****        29.7500  18.2500  59.2500 Du        
   5629 ****        29.7500  18.2500  59.5000 Du        
   5630 ****        29.7500  18.2500  59.7500 Du        
   5631 ****        29.7500  18.2500  60.0000 Du        
   5632 ****        29.7500  18.2500  60.2500 Du        
   5633 ****        29.7500  18.5000  58.7500 Du        
   5634 ****        29.7500  18.5000  59.0000 Du        
   5635 ****        29.7500  18.5000  59.2500 Du        
   5636 ****        29.7500  18.5000  59.5000 Du        
   5637 ****        29.7500  18.5000  59.7500 Du        
   5638 ****        29.7500  18.5000  60.0000 Du        
   5639 ****        29.7500  18.5000  60.2500 Du        
   5640 ****        29.7500  18.7500  58.7500 Du        
   5641 ****        29.7500  18.7500  59.0000 Du        
   5642 ****        29.7500  18.7500  59.2500 Du        
   5643 ****        29.7500  18.7500  59.5000 Du        
   5644 ****        29.7500  18.7500  59.7500 Du        
   5645 ****        29.7500  18.7500  60.0000 Du        
   5646 ****        29.7500  18.7500  60.2500 Du        
   5647 ****        29.7500  18.7500  60.5000 Du        
   5648 ****        29.7500  19.0000  59.0000 Du        
   5649 ****        29.7500  19.0000  59.2500 Du        
   5650 ****        29.7500  19.0000  59.5000 Du        
   5651 ****        29.7500  19.0000  59.7500 Du        
   5652 ****        29.7500  19.0000  60.0000 Du        
   5653 ****        29.7500  19.0000  60.2500 Du        
   5654 ****        29.7500  19.0000  60.5000 Du        
   5655 ****        29.7500  19.2500  59.0000 Du        
   5656 ****        29.7500  19.2500  59.2500 Du        
   5657 ****        29.7500  19.2500  59.5000 Du        
   5658 ****        29.7500  19.2500  59.7500 Du        
   5659 ****        29.7500  19.2500  60.0000 Du        
   5660 ****        29.7500  19.2500  60.2500 Du        
   5661 ****        29.7500  19.2500  60.5000 Du        
   5662 ****        29.7500  19.5000  59.2500 Du        
   5663 ****        29.7500  19.5000  59.5000 Du        
   5664 ****        29.7500  19.5000  59.7500 Du        
   5665 ****        29.7500  19.5000  60.0000 Du        
   5666 ****        29.7500  19.5000  60.2500 Du        
   5667 ****        29.7500  19.5000  60.5000 Du        
   5668 ****        29.7500  19.7500  59.2500 Du        
   5669 ****        29.7500  19.7500  59.5000 Du        
   5670 ****        29.7500  19.7500  59.7500 Du        
   5671 ****        29.7500  19.7500  60.0000 Du        
   5672 ****        29.7500  19.7500  60.2500 Du        
   5673 ****        29.7500  19.7500  60.5000 Du        
   5674 ****        29.7500  20.0000  59.5000 Du        
   5675 ****        29.7500  20.0000  59.7500 Du        
   5676 ****        29.7500  20.0000  60.0000 Du        
   5677 ****        29.7500  20.0000  60.2500 Du        
   5678 ****        29.7500  20.2500  59.7500 Du        
   5679 ****        29.7500  20.2500  60.0000 Du        
   5680 ****        29.7500  20.2500  60.2500 Du        
   5681 ****        29.7500  23.0000  59.0000 Du        
   5682 ****        29.7500  23.0000  59.2500 Du        
   5683 ****        29.7500  23.0000  59.7500 Du        
   5684 ****        29.7500  23.2500  58.7500 Du        
   5685 ****        29.7500  23.2500  59.0000 Du        
   5686 ****        29.7500  23.2500  59.2500 Du        
   5687 ****        29.7500  23.2500  59.5000 Du        
   5688 ****        29.7500  23.2500  59.7500 Du        
   5689 ****        29.7500  23.2500  60.0000 Du        
   5690 ****        29.7500  23.5000  58.7500 Du        
   5691 ****        29.7500  23.5000  59.0000 Du        
   5692 ****        29.7500  23.5000  59.2500 Du        
   5693 ****        29.7500  23.5000  59.5000 Du        
   5694 ****        29.7500  23.5000  59.7500 Du        
   5695 ****        29.7500  23.5000  60.0000 Du        
   5696 ****        29.7500  23.7500  59.0000 Du        
   5697 ****        29.7500  23.7500  59.2500 Du        
   5698 ****        29.7500  23.7500  59.5000 Du        
   5699 ****        29.7500  23.7500  59.7500 Du        
   5700 ****        29.7500  23.7500  60.0000 Du        
   5701 ****        29.7500  24.0000  60.0000 Du        
   5702 ****        30.0000  15.0000  58.0000 Du        
   5703 ****        30.0000  15.0000  58.2500 Du        
   5704 ****        30.0000  15.2500  58.2500 Du        
   5705 ****        30.0000  15.2500  58.5000 Du        
   5706 ****        30.0000  15.5000  58.2500 Du        
   5707 ****        30.0000  15.5000  58.5000 Du        
   5708 ****        30.0000  15.5000  58.7500 Du        
   5709 ****        30.0000  15.7500  58.2500 Du        
   5710 ****        30.0000  15.7500  58.5000 Du        
   5711 ****        30.0000  15.7500  58.7500 Du        
   5712 ****        30.0000  15.7500  59.0000 Du        
   5713 ****        30.0000  15.7500  59.2500 Du        
   5714 ****        30.0000  16.0000  58.5000 Du        
   5715 ****        30.0000  16.0000  58.7500 Du        
   5716 ****        30.0000  16.0000  59.0000 Du        
   5717 ****        30.0000  16.0000  59.2500 Du        
   5718 ****        30.0000  16.2500  58.5000 Du        
   5719 ****        30.0000  16.2500  58.7500 Du        
   5720 ****        30.0000  16.2500  59.0000 Du        
   5721 ****        30.0000  16.2500  59.2500 Du        
   5722 ****        30.0000  16.2500  59.5000 Du        
   5723 ****        30.0000  16.5000  58.5000 Du        
   5724 ****        30.0000  16.5000  58.7500 Du        
   5725 ****        30.0000  16.5000  59.0000 Du        
   5726 ****        30.0000  16.5000  59.2500 Du        
   5727 ****        30.0000  16.5000  59.5000 Du        
   5728 ****        30.0000  16.7500  58.5000 Du        
   5729 ****        30.0000  16.7500  58.7500 Du        
   5730 ****        30.0000  16.7500  59.0000 Du        
   5731 ****        30.0000  16.7500  59.2500 Du        
   5732 ****        30.0000  16.7500  59.5000 Du        
   5733 ****        30.0000  16.7500  59.7500 Du        
   5734 ****        30.0000  17.0000  58.5000 Du        
   5735 ****        30.0000  17.0000  58.7500 Du        
   5736 ****        30.0000  17.0000  59.0000 Du        
   5737 ****        30.0000  17.0000  59.2500 Du        
   5738 ****        30.0000  17.0000  59.5000 Du        
   5739 ****        30.0000  17.0000  59.7500 Du        
   5740 ****        30.0000  17.2500  58.2500 Du        
   5741 ****        30.0000  17.2500  58.5000 Du        
   5742 ****        30.0000  17.2500  58.7500 Du        
   5743 ****        30.0000  17.2500  59.0000 Du        
   5744 ****        30.0000  17.2500  59.2500 Du        
   5745 ****        30.0000  17.2500  59.5000 Du        
   5746 ****        30.0000  17.2500  59.7500 Du        
   5747 ****        30.0000  17.2500  60.0000 Du        
   5748 ****        30.0000  17.5000  58.2500 Du        
   5749 ****        30.0000  17.5000  58.5000 Du        
   5750 ****        30.0000  17.5000  58.7500 Du        
   5751 ****        30.0000  17.5000  59.0000 Du        
   5752 ****        30.0000  17.5000  59.2500 Du        
   5753 ****        30.0000  17.5000  59.5000 Du        
   5754 ****        30.0000  17.5000  59.7500 Du        
   5755 ****        30.0000  17.5000  60.0000 Du        
   5756 ****        30.0000  17.7500  58.2500 Du        
   5757 ****        30.0000  17.7500  58.5000 Du        
   5758 ****        30.0000  17.7500  58.7500 Du        
   5759 ****        30.0000  17.7500  59.0000 Du        
   5760 ****        30.0000  17.7500  59.2500 Du        
   5761 ****        30.0000  17.7500  59.5000 Du        
   5762 ****        30.0000  17.7500  59.7500 Du        
   5763 ****        30.0000  17.7500  60.0000 Du        
   5764 ****        30.0000  17.7500  60.2500 Du        
   5765 ****        30.0000  18.0000  58.2500 Du        
   5766 ****        30.0000  18.0000  58.5000 Du        
   5767 ****        30.0000  18.0000  58.7500 Du        
   5768 ****        30.0000  18.0000  59.0000 Du        
   5769 ****        30.0000  18.0000  59.2500 Du        
   5770 ****        30.0000  18.0000  59.5000 Du        
   5771 ****        30.0000  18.0000  59.7500 Du        
   5772 ****        30.0000  18.0000  60.0000 Du        
   5773 ****        30.0000  18.0000  60.2500 Du        
   5774 ****        30.0000  18.2500  58.2500 Du        
   5775 ****        30.0000  18.2500  58.5000 Du        
   5776 ****        30.0000  18.2500  58.7500 Du        
   5777 ****        30.0000  18.2500  59.0000 Du        
   5778 ****        30.0000  18.2500  59.2500 Du        
   5779 ****        30.0000  18.2500  59.5000 Du        
   5780 ****        30.0000  18.2500  59.7500 Du        
   5781 ****        30.0000  18.2500  60.0000 Du        
   5782 ****        30.0000  18.2500  60.2500 Du        
   5783 ****        30.0000  18.2500  60.5000 Du        
   5784 ****        30.0000  18.5000  58.5000 Du        
   5785 ****        30.0000  18.5000  58.7500 Du        
   5786 ****        30.0000  18.5000  59.0000 Du        
   5787 ****        30.0000  18.5000  59.2500 Du        
   5788 ****        30.0000  18.5000  59.5000 Du        
   5789 ****        30.0000  18.5000  59.7500 Du        
   5790 ****        30.0000  18.5000  60.0000 Du        
   5791 ****        30.0000  18.5000  60.2500 Du        
   5792 ****        30.0000  18.5000  60.5000 Du        
   5793 ****        30.0000  18.7500  58.5000 Du        
   5794 ****        30.0000  18.7500  58.7500 Du        
   5795 ****        30.0000  18.7500  59.0000 Du        
   5796 ****        30.0000  18.7500  59.2500 Du        
   5797 ****        30.0000  18.7500  59.5000 Du        
   5798 ****        30.0000  18.7500  59.7500 Du        
   5799 ****        30.0000  18.7500  60.0000 Du        
   5800 ****        30.0000  18.7500  60.2500 Du        
   5801 ****        30.0000  18.7500  60.5000 Du        
   5802 ****        30.0000  19.0000  58.7500 Du        
   5803 ****        30.0000  19.0000  59.0000 Du        
   5804 ****        30.0000  19.0000  59.2500 Du        
   5805 ****        30.0000  19.0000  59.5000 Du        
   5806 ****        30.0000  19.0000  59.7500 Du        
   5807 ****        30.0000  19.0000  60.0000 Du        
   5808 ****        30.0000  19.0000  60.2500 Du        
   5809 ****        30.0000  19.0000  60.5000 Du        
   5810 ****        30.0000  19.2500  58.7500 Du        
   5811 ****        30.0000  19.2500  59.0000 Du        
   5812 ****        30.0000  19.2500  59.2500 Du        
   5813 ****        30.0000  19.2500  59.5000 Du        
   5814 ****        30.0000  19.2500  59.7500 Du        
   5815 ****        30.0000  19.2500  60.0000 Du        
   5816 ****        30.0000  19.2500  60.2500 Du        
   5817 ****        30.0000  19.2500  60.5000 Du        
   5818 ****        30.0000  19.5000  58.7500 Du        
   5819 ****        30.0000  19.5000  59.0000 Du        
   5820 ****        30.0000  19.5000  59.2500 Du        
   5821 ****        30.0000  19.5000  59.5000 Du        
   5822 ****        30.0000  19.5000  59.7500 Du        
   5823 ****        30.0000  19.5000  60.0000 Du        
   5824 ****        30.0000  19.5000  60.2500 Du        
   5825 ****        30.0000  19.5000  60.5000 Du        
   5826 ****        30.0000  19.7500  59.0000 Du        
   5827 ****        30.0000  19.7500  59.2500 Du        
   5828 ****        30.0000  19.7500  59.5000 Du        
   5829 ****        30.0000  19.7500  59.7500 Du        
   5830 ****        30.0000  19.7500  60.0000 Du        
   5831 ****        30.0000  19.7500  60.2500 Du        
   5832 ****        30.0000  20.0000  59.0000 Du        
   5833 ****        30.0000  20.0000  59.2500 Du        
   5834 ****        30.0000  20.0000  59.5000 Du        
   5835 ****        30.0000  20.0000  59.7500 Du        
   5836 ****        30.0000  20.0000  60.0000 Du        
   5837 ****        30.0000  20.0000  60.2500 Du        
   5838 ****        30.0000  20.2500  59.0000 Du        
   5839 ****        30.0000  20.2500  59.2500 Du        
   5840 ****        30.0000  20.2500  59.5000 Du        
   5841 ****        30.0000  20.2500  59.7500 Du        
   5842 ****        30.0000  20.2500  60.0000 Du        
   5843 ****        30.0000  20.2500  60.2500 Du        
   5844 ****        30.0000  20.5000  59.2500 Du        
   5845 ****        30.0000  20.5000  59.5000 Du        
   5846 ****        30.0000  20.5000  59.7500 Du        
   5847 ****        30.0000  20.5000  60.0000 Du        
   5848 ****        30.0000  20.5000  60.2500 Du        
   5849 ****        30.0000  20.7500  59.7500 Du        
   5850 ****        30.0000  20.7500  60.0000 Du        
   5851 ****        30.0000  21.0000  60.0000 Du        
   5852 ****        30.0000  22.2500  59.2500 Du        
   5853 ****        30.0000  22.5000  59.0000 Du        
   5854 ****        30.0000  22.5000  59.2500 Du        
   5855 ****        30.0000  22.7500  59.0000 Du        
   5856 ****        30.0000  22.7500  59.2500 Du        
   5857 ****        30.0000  22.7500  59.5000 Du        
   5858 ****        30.0000  22.7500  59.7500 Du        
   5859 ****        30.0000  22.7500  60.0000 Du        
   5860 ****        30.0000  23.0000  58.7500 Du        
   5861 ****        30.0000  23.0000  59.0000 Du        
   5862 ****        30.0000  23.0000  59.2500 Du        
   5863 ****        30.0000  23.0000  59.5000 Du        
   5864 ****        30.0000  23.0000  59.7500 Du        
   5865 ****        30.0000  23.0000  60.0000 Du        
   5866 ****        30.0000  23.2500  58.7500 Du        
   5867 ****        30.0000  23.2500  59.0000 Du        
   5868 ****        30.0000  23.2500  59.2500 Du        
   5869 ****        30.0000  23.2500  59.5000 Du        
   5870 ****        30.0000  23.2500  59.7500 Du        
   5871 ****        30.0000  23.2500  60.0000 Du        
   5872 ****        30.0000  23.5000  58.7500 Du        
   5873 ****        30.0000  23.5000  59.0000 Du        
   5874 ****        30.0000  23.5000  59.2500 Du        
   5875 ****        30.0000  23.5000  59.5000 Du        
   5876 ****        30.0000  23.5000  59.7500 Du        
   5877 ****        30.0000  23.5000  60.0000 Du        
   5878 ****        30.0000  23.7500  58.7500 Du        
   5879 ****        30.0000  23.7500  59.0000 Du        
   5880 ****        30.0000  23.7500  59.2500 Du        
   5881 ****        30.0000  23.7500  59.5000 Du        
   5882 ****        30.0000  23.7500  59.7500 Du        
   5883 ****        30.0000  23.7500  60.0000 Du        
   5884 ****        30.0000  24.0000  59.7500 Du        
   5885 ****        30.0000  45.0000  46.7500 Du        
   5886 ****        30.0000  45.2500  46.7500 Du        
   5887 ****        30.0000  45.2500  47.0000 Du        
   5888 ****        30.2500  15.0000  58.0000 Du        
   5889 ****        30.2500  15.0000  58.2500 Du        
   5890 ****        30.2500  15.0000  58.5000 Du        
   5891 ****        30.2500  15.2500  58.0000 Du        
   5892 ****        30.2500  15.2500  58.2500 Du        
   5893 ****        30.2500  15.2500  58.5000 Du        
   5894 ****        30.2500  15.2500  58.7500 Du        
   5895 ****        30.2500  15.5000  58.2500 Du        
   5896 ****        30.2500  15.5000  58.5000 Du        
   5897 ****        30.2500  15.5000  58.7500 Du        
   5898 ****        30.2500  15.5000  59.0000 Du        
   5899 ****        30.2500  15.7500  58.2500 Du        
   5900 ****        30.2500  15.7500  58.5000 Du        
   5901 ****        30.2500  15.7500  58.7500 Du        
   5902 ****        30.2500  15.7500  59.0000 Du        
   5903 ****        30.2500  16.0000  58.2500 Du        
   5904 ****        30.2500  16.0000  58.5000 Du        
   5905 ****        30.2500  16.0000  58.7500 Du        
   5906 ****        30.2500  16.0000  59.0000 Du        
   5907 ****        30.2500  16.2500  58.2500 Du        
   5908 ****        30.2500  16.2500  58.5000 Du        
   5909 ****        30.2500  16.2500  58.7500 Du        
   5910 ****        30.2500  16.2500  59.0000 Du        
   5911 ****        30.2500  16.2500  59.2500 Du        
   5912 ****        30.2500  16.5000  58.2500 Du        
   5913 ****        30.2500  16.5000  58.5000 Du        
   5914 ****        30.2500  16.5000  58.7500 Du        
   5915 ****        30.2500  16.5000  59.0000 Du        
   5916 ****        30.2500  16.5000  59.2500 Du        
   5917 ****        30.2500  16.7500  58.2500 Du        
   5918 ****        30.2500  16.7500  58.5000 Du        
   5919 ****        30.2500  16.7500  58.7500 Du        
   5920 ****        30.2500  16.7500  59.0000 Du        
   5921 ****        30.2500  16.7500  59.2500 Du        
   5922 ****        30.2500  16.7500  59.5000 Du        
   5923 ****        30.2500  17.0000  58.2500 Du        
   5924 ****        30.2500  17.0000  58.5000 Du        
   5925 ****        30.2500  17.0000  58.7500 Du        
   5926 ****        30.2500  17.0000  59.0000 Du        
   5927 ****        30.2500  17.0000  59.2500 Du        
   5928 ****        30.2500  17.0000  59.5000 Du        
   5929 ****        30.2500  17.2500  58.2500 Du        
   5930 ****        30.2500  17.2500  58.5000 Du        
   5931 ****        30.2500  17.2500  58.7500 Du        
   5932 ****        30.2500  17.2500  59.0000 Du        
   5933 ****        30.2500  17.2500  59.2500 Du        
   5934 ****        30.2500  17.2500  59.5000 Du        
   5935 ****        30.2500  17.2500  59.7500 Du        
   5936 ****        30.2500  17.5000  58.2500 Du        
   5937 ****        30.2500  17.5000  58.5000 Du        
   5938 ****        30.2500  17.5000  58.7500 Du        
   5939 ****        30.2500  17.5000  59.0000 Du        
   5940 ****        30.2500  17.5000  59.2500 Du        
   5941 ****        30.2500  17.5000  59.5000 Du        
   5942 ****        30.2500  17.5000  59.7500 Du        
   5943 ****        30.2500  17.5000  60.0000 Du        
   5944 ****        30.2500  17.7500  58.2500 Du        
   5945 ****        30.2500  17.7500  58.5000 Du        
   5946 ****        30.2500  17.7500  58.7500 Du        
   5947 ****        30.2500  17.7500  59.0000 Du        
   5948 ****        30.2500  17.7500  59.2500 Du        
   5949 ****        30.2500  17.7500  59.5000 Du        
   5950 ****        30.2500  17.7500  59.7500 Du        
   5951 ****        30.2500  17.7500  60.0000 Du        
   5952 ****        30.2500  17.7500  60.2500 Du        
   5953 ****        30.2500  18.0000  58.2500 Du        
   5954 ****        30.2500  18.0000  58.5000 Du        
   5955 ****        30.2500  18.0000  58.7500 Du        
   5956 ****        30.2500  18.0000  59.0000 Du        
   5957 ****        30.2500  18.0000  59.2500 Du        
   5958 ****        30.2500  18.0000  59.5000 Du        
   5959 ****        30.2500  18.0000  59.7500 Du        
   5960 ****        30.2500  18.0000  60.0000 Du        
   5961 ****        30.2500  18.0000  60.2500 Du        
   5962 ****        30.2500  18.0000  60.5000 Du        
   5963 ****        30.2500  18.2500  58.2500 Du        
   5964 ****        30.2500  18.2500  58.5000 Du        
   5965 ****        30.2500  18.2500  58.7500 Du        
   5966 ****        30.2500  18.2500  59.0000 Du        
   5967 ****        30.2500  18.2500  59.2500 Du        
   5968 ****        30.2500  18.2500  59.5000 Du        
   5969 ****        30.2500  18.2500  59.7500 Du        
   5970 ****        30.2500  18.2500  60.0000 Du        
   5971 ****        30.2500  18.2500  60.2500 Du        
   5972 ****        30.2500  18.2500  60.5000 Du        
   5973 ****        30.2500  18.5000  58.2500 Du        
   5974 ****        30.2500  18.5000  58.5000 Du        
   5975 ****        30.2500  18.5000  58.7500 Du        
   5976 ****        30.2500  18.5000  59.0000 Du        
   5977 ****        30.2500  18.5000  59.2500 Du        
   5978 ****        30.2500  18.5000  59.5000 Du        
   5979 ****        30.2500  18.5000  59.7500 Du        
   5980 ****        30.2500  18.5000  60.0000 Du        
   5981 ****        30.2500  18.5000  60.2500 Du        
   5982 ****        30.2500  18.5000  60.5000 Du        
   5983 ****        30.2500  18.7500  58.2500 Du        
   5984 ****        30.2500  18.7500  58.5000 Du        
   5985 ****        30.2500  18.7500  58.7500 Du        
   5986 ****        30.2500  18.7500  59.0000 Du        
   5987 ****        30.2500  18.7500  59.2500 Du        
   5988 ****        30.2500  18.7500  59.5000 Du        
   5989 ****        30.2500  18.7500  59.7500 Du        
   5990 ****        30.2500  18.7500  60.0000 Du        
   5991 ****        30.2500  18.7500  60.2500 Du        
   5992 ****        30.2500  18.7500  60.5000 Du        
   5993 ****        30.2500  19.0000  58.2500 Du        
   5994 ****        30.2500  19.0000  58.5000 Du        
   5995 ****        30.2500  19.0000  58.7500 Du        
   5996 ****        30.2500  19.0000  59.0000 Du        
   5997 ****        30.2500  19.0000  59.2500 Du        
   5998 ****        30.2500  19.0000  59.5000 Du        
   5999 ****        30.2500  19.0000  59.7500 Du        
   6000 ****        30.2500  19.0000  60.0000 Du        
   6001 ****        30.2500  19.0000  60.2500 Du        
   6002 ****        30.2500  19.0000  60.5000 Du        
   6003 ****        30.2500  19.2500  58.2500 Du        
   6004 ****        30.2500  19.2500  58.5000 Du        
   6005 ****        30.2500  19.2500  58.7500 Du        
   6006 ****        30.2500  19.2500  59.0000 Du        
   6007 ****        30.2500  19.2500  59.2500 Du        
   6008 ****        30.2500  19.2500  59.5000 Du        
   6009 ****        30.2500  19.2500  59.7500 Du        
   6010 ****        30.2500  19.2500  60.0000 Du        
   6011 ****        30.2500  19.2500  60.2500 Du        
   6012 ****        30.2500  19.2500  60.5000 Du        
   6013 ****        30.2500  19.5000  58.5000 Du        
   6014 ****        30.2500  19.5000  58.7500 Du        
   6015 ****        30.2500  19.5000  59.0000 Du        
   6016 ****        30.2500  19.5000  59.2500 Du        
   6017 ****        30.2500  19.5000  59.5000 Du        
   6018 ****        30.2500  19.5000  59.7500 Du        
   6019 ****        30.2500  19.5000  60.0000 Du        
   6020 ****        30.2500  19.5000  60.2500 Du        
   6021 ****        30.2500  19.7500  58.5000 Du        
   6022 ****        30.2500  19.7500  58.7500 Du        
   6023 ****        30.2500  19.7500  59.0000 Du        
   6024 ****        30.2500  19.7500  59.2500 Du        
   6025 ****        30.2500  19.7500  59.5000 Du        
   6026 ****        30.2500  19.7500  59.7500 Du        
   6027 ****        30.2500  19.7500  60.0000 Du        
   6028 ****        30.2500  19.7500  60.2500 Du        
   6029 ****        30.2500  20.0000  58.5000 Du        
   6030 ****        30.2500  20.0000  58.7500 Du        
   6031 ****        30.2500  20.0000  59.0000 Du        
   6032 ****        30.2500  20.0000  59.2500 Du        
   6033 ****        30.2500  20.0000  59.5000 Du        
   6034 ****        30.2500  20.0000  59.7500 Du        
   6035 ****        30.2500  20.0000  60.0000 Du        
   6036 ****        30.2500  20.0000  60.2500 Du        
   6037 ****        30.2500  20.2500  58.5000 Du        
   6038 ****        30.2500  20.2500  58.7500 Du        
   6039 ****        30.2500  20.2500  59.0000 Du        
   6040 ****        30.2500  20.2500  59.2500 Du        
   6041 ****        30.2500  20.2500  59.5000 Du        
   6042 ****        30.2500  20.2500  59.7500 Du        
   6043 ****        30.2500  20.2500  60.0000 Du        
   6044 ****        30.2500  20.2500  60.2500 Du        
   6045 ****        30.2500  20.5000  58.5000 Du        
   6046 ****        30.2500  20.5000  58.7500 Du        
   6047 ****        30.2500  20.5000  59.0000 Du        
   6048 ****        30.2500  20.5000  59.2500 Du        
   6049 ****        30.2500  20.5000  59.5000 Du        
   6050 ****        30.2500  20.5000  59.7500 Du        
   6051 ****        30.2500  20.5000  60.0000 Du        
   6052 ****        30.2500  20.7500  58.5000 Du        
   6053 ****        30.2500  20.7500  58.7500 Du        
   6054 ****        30.2500  20.7500  59.0000 Du        
   6055 ****        30.2500  20.7500  59.2500 Du        
   6056 ****        30.2500  20.7500  59.5000 Du        
   6057 ****        30.2500  20.7500  59.7500 Du        
   6058 ****        30.2500  20.7500  60.0000 Du        
   6059 ****        30.2500  21.0000  58.7500 Du        
   6060 ****        30.2500  21.0000  59.0000 Du        
   6061 ****        30.2500  21.0000  59.2500 Du        
   6062 ****        30.2500  21.0000  59.5000 Du        
   6063 ****        30.2500  21.0000  59.7500 Du        
   6064 ****        30.2500  21.0000  60.0000 Du        
   6065 ****        30.2500  21.2500  58.7500 Du        
   6066 ****        30.2500  21.2500  59.0000 Du        
   6067 ****        30.2500  21.2500  59.2500 Du        
   6068 ****        30.2500  21.2500  59.5000 Du        
   6069 ****        30.2500  21.2500  59.7500 Du        
   6070 ****        30.2500  21.2500  60.0000 Du        
   6071 ****        30.2500  21.5000  58.7500 Du        
   6072 ****        30.2500  21.5000  59.0000 Du        
   6073 ****        30.2500  21.5000  59.2500 Du        
   6074 ****        30.2500  21.5000  59.5000 Du        
   6075 ****        30.2500  21.5000  59.7500 Du        
   6076 ****        30.2500  21.7500  58.7500 Du        
   6077 ****        30.2500  21.7500  59.0000 Du        
   6078 ****        30.2500  21.7500  59.2500 Du        
   6079 ****        30.2500  21.7500  59.5000 Du        
   6080 ****        30.2500  21.7500  59.7500 Du        
   6081 ****        30.2500  21.7500  60.0000 Du        
   6082 ****        30.2500  22.0000  59.0000 Du        
   6083 ****        30.2500  22.0000  59.2500 Du        
   6084 ****        30.2500  22.0000  59.5000 Du        
   6085 ****        30.2500  22.0000  59.7500 Du        
   6086 ****        30.2500  22.2500  59.0000 Du        
   6087 ****        30.2500  22.2500  59.2500 Du        
   6088 ****        30.2500  22.2500  59.5000 Du        
   6089 ****        30.2500  22.2500  59.7500 Du        
   6090 ****        30.2500  22.2500  60.0000 Du        
   6091 ****        30.2500  22.5000  58.7500 Du        
   6092 ****        30.2500  22.5000  59.0000 Du        
   6093 ****        30.2500  22.5000  59.2500 Du        
   6094 ****        30.2500  22.5000  59.5000 Du        
   6095 ****        30.2500  22.5000  59.7500 Du        
   6096 ****        30.2500  22.5000  60.0000 Du        
   6097 ****        30.2500  22.7500  58.7500 Du        
   6098 ****        30.2500  22.7500  59.0000 Du        
   6099 ****        30.2500  22.7500  59.2500 Du        
   6100 ****        30.2500  22.7500  59.5000 Du        
   6101 ****        30.2500  22.7500  59.7500 Du        
   6102 ****        30.2500  22.7500  60.0000 Du        
   6103 ****        30.2500  23.0000  58.7500 Du        
   6104 ****        30.2500  23.0000  59.0000 Du        
   6105 ****        30.2500  23.0000  59.2500 Du        
   6106 ****        30.2500  23.0000  59.5000 Du        
   6107 ****        30.2500  23.0000  59.7500 Du        
   6108 ****        30.2500  23.0000  60.0000 Du        
   6109 ****        30.2500  23.2500  58.7500 Du        
   6110 ****        30.2500  23.2500  59.0000 Du        
   6111 ****        30.2500  23.2500  59.2500 Du        
   6112 ****        30.2500  23.2500  59.5000 Du        
   6113 ****        30.2500  23.2500  59.7500 Du        
   6114 ****        30.2500  23.2500  60.0000 Du        
   6115 ****        30.2500  23.5000  58.7500 Du        
   6116 ****        30.2500  23.5000  59.0000 Du        
   6117 ****        30.2500  23.5000  59.2500 Du        
   6118 ****        30.2500  23.5000  59.5000 Du        
   6119 ****        30.2500  23.5000  59.7500 Du        
   6120 ****        30.2500  23.5000  60.0000 Du        
   6121 ****        30.2500  23.7500  58.7500 Du        
   6122 ****        30.2500  23.7500  59.0000 Du        
   6123 ****        30.2500  23.7500  59.2500 Du        
   6124 ****        30.2500  23.7500  59.5000 Du        
   6125 ****        30.2500  23.7500  59.7500 Du        
   6126 ****        30.2500  23.7500  60.0000 Du        
   6127 ****        30.2500  24.0000  59.2500 Du        
   6128 ****        30.2500  24.0000  60.0000 Du        
   6129 ****        30.2500  45.0000  46.7500 Du        
   6130 ****        30.2500  45.2500  46.7500 Du        
   6131 ****        30.2500  45.2500  47.0000 Du        
   6132 ****        30.5000  15.0000  57.7500 Du        
   6133 ****        30.5000  15.0000  58.0000 Du        
   6134 ****        30.5000  15.0000  58.2500 Du        
   6135 ****        30.5000  15.0000  58.5000 Du        
   6136 ****        30.5000  15.0000  58.7500 Du        
   6137 ****        30.5000  15.2500  58.0000 Du        
   6138 ****        30.5000  15.2500  58.2500 Du        
   6139 ****        30.5000  15.2500  58.5000 Du        
   6140 ****        30.5000  15.2500  58.7500 Du        
   6141 ****        30.5000  15.5000  58.0000 Du        
   6142 ****        30.5000  15.5000  58.2500 Du        
   6143 ****        30.5000  15.5000  58.5000 Du        
   6144 ****        30.5000  15.5000  58.7500 Du        
   6145 ****        30.5000  15.7500  58.2500 Du        
   6146 ****        30.5000  15.7500  58.5000 Du        
   6147 ****        30.5000  15.7500  58.7500 Du        
   6148 ****        30.5000  16.0000  58.2500 Du        
   6149 ****        30.5000  16.0000  58.5000 Du        
   6150 ****        30.5000  16.0000  58.7500 Du        
   6151 ****        30.5000  16.2500  58.2500 Du        
   6152 ****        30.5000  16.2500  58.5000 Du        
   6153 ****        30.5000  16.2500  58.7500 Du        
   6154 ****        30.5000  16.5000  58.2500 Du        
   6155 ****        30.5000  16.5000  58.5000 Du        
   6156 ****        30.5000  16.5000  58.7500 Du        
   6157 ****        30.5000  16.5000  59.0000 Du        
   6158 ****        30.5000  16.7500  58.2500 Du        
   6159 ****        30.5000  16.7500  58.5000 Du        
   6160 ****        30.5000  16.7500  58.7500 Du        
   6161 ****        30.5000  16.7500  59.0000 Du        
   6162 ****        30.5000  17.0000  58.2500 Du        
   6163 ****        30.5000  17.0000  58.5000 Du        
   6164 ****        30.5000  17.0000  58.7500 Du        
   6165 ****        30.5000  17.0000  59.0000 Du        
   6166 ****        30.5000  17.0000  59.2500 Du        
   6167 ****        30.5000  17.2500  58.2500 Du        
   6168 ****        30.5000  17.2500  58.5000 Du        
   6169 ****        30.5000  17.2500  58.7500 Du        
   6170 ****        30.5000  17.2500  59.0000 Du        
   6171 ****        30.5000  17.2500  59.2500 Du        
   6172 ****        30.5000  17.5000  58.2500 Du        
   6173 ****        30.5000  17.5000  58.5000 Du        
   6174 ****        30.5000  17.5000  58.7500 Du        
   6175 ****        30.5000  17.5000  59.0000 Du        
   6176 ****        30.5000  17.5000  59.2500 Du        
   6177 ****        30.5000  17.5000  59.5000 Du        
   6178 ****        30.5000  17.7500  58.2500 Du        
   6179 ****        30.5000  17.7500  58.5000 Du        
   6180 ****        30.5000  17.7500  58.7500 Du        
   6181 ****        30.5000  17.7500  59.0000 Du        
   6182 ****        30.5000  17.7500  59.2500 Du        
   6183 ****        30.5000  17.7500  59.5000 Du        
   6184 ****        30.5000  17.7500  59.7500 Du        
   6185 ****        30.5000  17.7500  60.0000 Du        
   6186 ****        30.5000  18.0000  58.2500 Du        
   6187 ****        30.5000  18.0000  58.5000 Du        
   6188 ****        30.5000  18.0000  58.7500 Du        
   6189 ****        30.5000  18.0000  59.0000 Du        
   6190 ****        30.5000  18.0000  59.2500 Du        
   6191 ****        30.5000  18.0000  59.5000 Du        
   6192 ****        30.5000  18.0000  59.7500 Du        
   6193 ****        30.5000  18.0000  60.0000 Du        
   6194 ****        30.5000  18.0000  60.2500 Du        
   6195 ****        30.5000  18.2500  58.0000 Du        
   6196 ****        30.5000  18.2500  58.2500 Du        
   6197 ****        30.5000  18.2500  58.5000 Du        
   6198 ****        30.5000  18.2500  58.7500 Du        
   6199 ****        30.5000  18.2500  59.0000 Du        
   6200 ****        30.5000  18.2500  59.2500 Du        
   6201 ****        30.5000  18.2500  59.5000 Du        
   6202 ****        30.5000  18.2500  59.7500 Du        
   6203 ****        30.5000  18.2500  60.0000 Du        
   6204 ****        30.5000  18.2500  60.2500 Du        
   6205 ****        30.5000  18.5000  58.2500 Du        
   6206 ****        30.5000  18.5000  58.5000 Du        
   6207 ****        30.5000  18.5000  58.7500 Du        
   6208 ****        30.5000  18.5000  59.0000 Du        
   6209 ****        30.5000  18.5000  59.2500 Du        
   6210 ****        30.5000  18.5000  59.5000 Du        
   6211 ****        30.5000  18.5000  59.7500 Du        
   6212 ****        30.5000  18.5000  60.0000 Du        
   6213 ****        30.5000  18.5000  60.2500 Du        
   6214 ****        30.5000  18.7500  58.0000 Du        
   6215 ****        30.5000  18.7500  58.2500 Du        
   6216 ****        30.5000  18.7500  58.5000 Du        
   6217 ****        30.5000  18.7500  58.7500 Du        
   6218 ****        30.5000  18.7500  59.0000 Du        
   6219 ****        30.5000  18.7500  59.2500 Du        
   6220 ****        30.5000  18.7500  59.5000 Du        
   6221 ****        30.5000  18.7500  59.7500 Du        
   6222 ****        30.5000  18.7500  60.0000 Du        
   6223 ****        30.5000  18.7500  60.2500 Du        
   6224 ****        30.5000  18.7500  60.5000 Du        
   6225 ****        30.5000  19.0000  58.0000 Du        
   6226 ****        30.5000  19.0000  58.2500 Du        
   6227 ****        30.5000  19.0000  58.5000 Du        
   6228 ****        30.5000  19.0000  58.7500 Du        
   6229 ****        30.5000  19.0000  59.0000 Du        
   6230 ****        30.5000  19.0000  59.2500 Du        
   6231 ****        30.5000  19.0000  59.5000 Du        
   6232 ****        30.5000  19.0000  59.7500 Du        
   6233 ****        30.5000  19.0000  60.0000 Du        
   6234 ****        30.5000  19.0000  60.2500 Du        
   6235 ****        30.5000  19.2500  58.0000 Du        
   6236 ****        30.5000  19.2500  58.2500 Du        
   6237 ****        30.5000  19.2500  58.5000 Du        
   6238 ****        30.5000  19.2500  58.7500 Du        
   6239 ****        30.5000  19.2500  59.0000 Du        
   6240 ****        30.5000  19.2500  59.2500 Du        
   6241 ****        30.5000  19.2500  59.5000 Du        
   6242 ****        30.5000  19.2500  59.7500 Du        
   6243 ****        30.5000  19.2500  60.0000 Du        
   6244 ****        30.5000  19.2500  60.2500 Du        
   6245 ****        30.5000  19.5000  58.2500 Du        
   6246 ****        30.5000  19.5000  58.5000 Du        
   6247 ****        30.5000  19.5000  58.7500 Du        
   6248 ****        30.5000  19.5000  59.0000 Du        
   6249 ****        30.5000  19.5000  59.2500 Du        
   6250 ****        30.5000  19.5000  59.5000 Du        
   6251 ****        30.5000  19.5000  59.7500 Du        
   6252 ****        30.5000  19.5000  60.0000 Du        
   6253 ****        30.5000  19.5000  60.2500 Du        
   6254 ****        30.5000  19.7500  58.0000 Du        
   6255 ****        30.5000  19.7500  58.2500 Du        
   6256 ****        30.5000  19.7500  58.5000 Du        
   6257 ****        30.5000  19.7500  58.7500 Du        
   6258 ****        30.5000  19.7500  59.0000 Du        
   6259 ****        30.5000  19.7500  59.2500 Du        
   6260 ****        30.5000  19.7500  59.5000 Du        
   6261 ****        30.5000  19.7500  59.7500 Du        
   6262 ****        30.5000  19.7500  60.0000 Du        
   6263 ****        30.5000  19.7500  60.2500 Du        
   6264 ****        30.5000  20.0000  58.2500 Du        
   6265 ****        30.5000  20.0000  58.5000 Du        
   6266 ****        30.5000  20.0000  58.7500 Du        
   6267 ****        30.5000  20.0000  59.0000 Du        
   6268 ****        30.5000  20.0000  59.2500 Du        
   6269 ****        30.5000  20.0000  59.5000 Du        
   6270 ****        30.5000  20.0000  59.7500 Du        
   6271 ****        30.5000  20.0000  60.0000 Du        
   6272 ****        30.5000  20.0000  60.2500 Du        
   6273 ****        30.5000  20.2500  58.0000 Du        
   6274 ****        30.5000  20.2500  58.2500 Du        
   6275 ****        30.5000  20.2500  58.5000 Du        
   6276 ****        30.5000  20.2500  58.7500 Du        
   6277 ****        30.5000  20.2500  59.0000 Du        
   6278 ****        30.5000  20.2500  59.2500 Du        
   6279 ****        30.5000  20.2500  59.5000 Du        
   6280 ****        30.5000  20.2500  59.7500 Du        
   6281 ****        30.5000  20.2500  60.0000 Du        
   6282 ****        30.5000  20.2500  60.2500 Du        
   6283 ****        30.5000  20.5000  58.0000 Du        
   6284 ****        30.5000  20.5000  58.2500 Du        
   6285 ****        30.5000  20.5000  58.5000 Du        
   6286 ****        30.5000  20.5000  58.7500 Du        
   6287 ****        30.5000  20.5000  59.0000 Du        
   6288 ****        30.5000  20.5000  59.2500 Du        
   6289 ****        30.5000  20.5000  59.5000 Du        
   6290 ****        30.5000  20.5000  59.7500 Du        
   6291 ****        30.5000  20.5000  60.0000 Du        
   6292 ****        30.5000  20.7500  58.2500 Du        
   6293 ****        30.5000  20.7500  58.5000 Du        
   6294 ****        30.5000  20.7500  58.7500 Du        
   6295 ****        30.5000  20.7500  59.0000 Du        
   6296 ****        30.5000  20.7500  59.2500 Du        
   6297 ****        30.5000  20.7500  59.5000 Du        
   6298 ****        30.5000  20.7500  59.7500 Du        
   6299 ****        30.5000  20.7500  60.0000 Du        
   6300 ****        30.5000  21.0000  58.2500 Du        
   6301 ****        30.5000  21.0000  58.5000 Du        
   6302 ****        30.5000  21.0000  58.7500 Du        
   6303 ****        30.5000  21.0000  59.0000 Du        
   6304 ****        30.5000  21.0000  59.2500 Du        
   6305 ****        30.5000  21.0000  59.5000 Du        
   6306 ****        30.5000  21.0000  59.7500 Du        
   6307 ****        30.5000  21.0000  60.0000 Du        
   6308 ****        30.5000  21.2500  58.5000 Du        
   6309 ****        30.5000  21.2500  58.7500 Du        
   6310 ****        30.5000  21.2500  59.0000 Du        
   6311 ****        30.5000  21.2500  59.2500 Du        
   6312 ****        30.5000  21.2500  59.5000 Du        
   6313 ****        30.5000  21.2500  59.7500 Du        
   6314 ****        30.5000  21.2500  60.0000 Du        
   6315 ****        30.5000  21.5000  58.7500 Du        
   6316 ****        30.5000  21.5000  59.0000 Du        
   6317 ****        30.5000  21.5000  59.2500 Du        
   6318 ****        30.5000  21.5000  59.5000 Du        
   6319 ****        30.5000  21.5000  59.7500 Du        
   6320 ****        30.5000  21.7500  58.7500 Du        
   6321 ****        30.5000  21.7500  59.0000 Du        
   6322 ****        30.5000  21.7500  59.2500 Du        
   6323 ****        30.5000  21.7500  59.5000 Du        
   6324 ****        30.5000  21.7500  59.7500 Du        
   6325 ****        30.5000  22.0000  58.7500 Du        
   6326 ****        30.5000  22.0000  59.0000 Du        
   6327 ****        30.5000  22.0000  59.2500 Du        
   6328 ****        30.5000  22.0000  59.5000 Du        
   6329 ****        30.5000  22.0000  59.7500 Du        
   6330 ****        30.5000  22.2500  58.7500 Du        
   6331 ****        30.5000  22.2500  59.0000 Du        
   6332 ****        30.5000  22.2500  59.2500 Du        
   6333 ****        30.5000  22.2500  59.5000 Du        
   6334 ****        30.5000  22.2500  59.7500 Du        
   6335 ****        30.5000  22.5000  58.7500 Du        
   6336 ****        30.5000  22.5000  59.0000 Du        
   6337 ****        30.5000  22.5000  59.2500 Du        
   6338 ****        30.5000  22.5000  59.5000 Du        
   6339 ****        30.5000  22.5000  59.7500 Du        
   6340 ****        30.5000  22.5000  60.0000 Du        
   6341 ****        30.5000  22.7500  58.7500 Du        
   6342 ****        30.5000  22.7500  59.0000 Du        
   6343 ****        30.5000  22.7500  59.2500 Du        
   6344 ****        30.5000  22.7500  59.5000 Du        
   6345 ****        30.5000  22.7500  59.7500 Du        
   6346 ****        30.5000  22.7500  60.0000 Du        
   6347 ****        30.5000  23.0000  58.7500 Du        
   6348 ****        30.5000  23.0000  59.0000 Du        
   6349 ****        30.5000  23.0000  59.2500 Du        
   6350 ****        30.5000  23.0000  59.5000 Du        
   6351 ****        30.5000  23.0000  59.7500 Du        
   6352 ****        30.5000  23.0000  60.0000 Du        
   6353 ****        30.5000  23.2500  58.7500 Du        
   6354 ****        30.5000  23.2500  59.0000 Du        
   6355 ****        30.5000  23.2500  59.2500 Du        
   6356 ****        30.5000  23.2500  59.5000 Du        
   6357 ****        30.5000  23.2500  59.7500 Du        
   6358 ****        30.5000  23.2500  60.0000 Du        
   6359 ****        30.5000  23.5000  58.7500 Du        
   6360 ****        30.5000  23.5000  59.0000 Du        
   6361 ****        30.5000  23.5000  59.2500 Du        
   6362 ****        30.5000  23.5000  59.5000 Du        
   6363 ****        30.5000  23.5000  59.7500 Du        
   6364 ****        30.5000  23.7500  58.7500 Du        
   6365 ****        30.5000  23.7500  59.0000 Du        
   6366 ****        30.5000  23.7500  59.2500 Du        
   6367 ****        30.5000  23.7500  59.5000 Du        
   6368 ****        30.5000  23.7500  59.7500 Du        
   6369 ****        30.5000  24.0000  59.0000 Du        
   6370 ****        30.5000  24.0000  59.2500 Du        
   6371 ****        30.5000  24.0000  59.7500 Du        
   6372 ****        30.5000  45.0000  46.7500 Du        
   6373 ****        30.5000  45.2500  46.5000 Du        
   6374 ****        30.5000  45.2500  46.7500 Du        
   6375 ****        30.5000  45.5000  46.7500 Du        
   6376 ****        30.5000  45.7500  46.7500 Du        
   6377 ****        30.5000  45.7500  47.0000 Du        
   6378 ****        30.7500  15.0000  57.7500 Du        
   6379 ****        30.7500  15.0000  58.0000 Du        
   6380 ****        30.7500  15.0000  58.2500 Du        
   6381 ****        30.7500  15.0000  58.5000 Du        
   6382 ****        30.7500  15.0000  58.7500 Du        
   6383 ****        30.7500  15.2500  57.7500 Du        
   6384 ****        30.7500  15.2500  58.0000 Du        
   6385 ****        30.7500  15.2500  58.2500 Du        
   6386 ****        30.7500  15.2500  58.5000 Du        
   6387 ****        30.7500  15.2500  58.7500 Du        
   6388 ****        30.7500  15.5000  58.0000 Du        
   6389 ****        30.7500  15.5000  58.2500 Du        
   6390 ****        30.7500  15.5000  58.5000 Du        
   6391 ****        30.7500  15.5000  58.7500 Du        
   6392 ****        30.7500  15.7500  58.0000 Du        
   6393 ****        30.7500  15.7500  58.2500 Du        
   6394 ****        30.7500  15.7500  58.5000 Du        
   6395 ****        30.7500  15.7500  58.7500 Du        
   6396 ****        30.7500  16.0000  58.0000 Du        
   6397 ****        30.7500  16.0000  58.2500 Du        
   6398 ****        30.7500  16.0000  58.5000 Du        
   6399 ****        30.7500  16.0000  58.7500 Du        
   6400 ****        30.7500  16.2500  58.2500 Du        
   6401 ****        30.7500  16.2500  58.5000 Du        
   6402 ****        30.7500  16.2500  58.7500 Du        
   6403 ****        30.7500  16.5000  58.2500 Du        
   6404 ****        30.7500  16.5000  58.5000 Du        
   6405 ****        30.7500  16.5000  58.7500 Du        
   6406 ****        30.7500  16.7500  58.2500 Du        
   6407 ****        30.7500  16.7500  58.5000 Du        
   6408 ****        30.7500  16.7500  58.7500 Du        
   6409 ****        30.7500  17.0000  58.2500 Du        
   6410 ****        30.7500  17.0000  58.5000 Du        
   6411 ****        30.7500  17.0000  58.7500 Du        
   6412 ****        30.7500  17.0000  59.0000 Du        
   6413 ****        30.7500  17.2500  58.0000 Du        
   6414 ****        30.7500  17.2500  58.2500 Du        
   6415 ****        30.7500  17.2500  58.5000 Du        
   6416 ****        30.7500  17.2500  58.7500 Du        
   6417 ****        30.7500  17.2500  59.0000 Du        
   6418 ****        30.7500  17.5000  58.0000 Du        
   6419 ****        30.7500  17.5000  58.2500 Du        
   6420 ****        30.7500  17.5000  58.5000 Du        
   6421 ****        30.7500  17.5000  58.7500 Du        
   6422 ****        30.7500  17.5000  59.0000 Du        
   6423 ****        30.7500  17.5000  59.2500 Du        
   6424 ****        30.7500  17.7500  58.0000 Du        
   6425 ****        30.7500  17.7500  58.2500 Du        
   6426 ****        30.7500  17.7500  58.5000 Du        
   6427 ****        30.7500  17.7500  58.7500 Du        
   6428 ****        30.7500  17.7500  59.0000 Du        
   6429 ****        30.7500  17.7500  59.2500 Du        
   6430 ****        30.7500  17.7500  59.5000 Du        
   6431 ****        30.7500  18.0000  58.0000 Du        
   6432 ****        30.7500  18.0000  58.2500 Du        
   6433 ****        30.7500  18.0000  58.5000 Du        
   6434 ****        30.7500  18.0000  58.7500 Du        
   6435 ****        30.7500  18.0000  59.0000 Du        
   6436 ****        30.7500  18.0000  59.2500 Du        
   6437 ****        30.7500  18.0000  59.5000 Du        
   6438 ****        30.7500  18.0000  59.7500 Du        
   6439 ****        30.7500  18.0000  60.0000 Du        
   6440 ****        30.7500  18.2500  58.0000 Du        
   6441 ****        30.7500  18.2500  58.2500 Du        
   6442 ****        30.7500  18.2500  58.5000 Du        
   6443 ****        30.7500  18.2500  58.7500 Du        
   6444 ****        30.7500  18.2500  59.0000 Du        
   6445 ****        30.7500  18.2500  59.2500 Du        
   6446 ****        30.7500  18.2500  59.5000 Du        
   6447 ****        30.7500  18.2500  59.7500 Du        
   6448 ****        30.7500  18.2500  60.0000 Du        
   6449 ****        30.7500  18.2500  60.2500 Du        
   6450 ****        30.7500  18.5000  58.0000 Du        
   6451 ****        30.7500  18.5000  58.2500 Du        
   6452 ****        30.7500  18.5000  58.5000 Du        
   6453 ****        30.7500  18.5000  58.7500 Du        
   6454 ****        30.7500  18.5000  59.0000 Du        
   6455 ****        30.7500  18.5000  59.2500 Du        
   6456 ****        30.7500  18.5000  59.5000 Du        
   6457 ****        30.7500  18.5000  59.7500 Du        
   6458 ****        30.7500  18.5000  60.0000 Du        
   6459 ****        30.7500  18.5000  60.2500 Du        
   6460 ****        30.7500  18.7500  58.0000 Du        
   6461 ****        30.7500  18.7500  58.2500 Du        
   6462 ****        30.7500  18.7500  58.5000 Du        
   6463 ****        30.7500  18.7500  58.7500 Du        
   6464 ****        30.7500  18.7500  59.0000 Du        
   6465 ****        30.7500  18.7500  59.2500 Du        
   6466 ****        30.7500  18.7500  59.5000 Du        
   6467 ****        30.7500  18.7500  59.7500 Du        
   6468 ****        30.7500  18.7500  60.0000 Du        
   6469 ****        30.7500  18.7500  60.2500 Du        
   6470 ****        30.7500  19.0000  58.0000 Du        
   6471 ****        30.7500  19.0000  58.2500 Du        
   6472 ****        30.7500  19.0000  58.5000 Du        
   6473 ****        30.7500  19.0000  58.7500 Du        
   6474 ****        30.7500  19.0000  59.0000 Du        
   6475 ****        30.7500  19.0000  59.2500 Du        
   6476 ****        30.7500  19.0000  59.5000 Du        
   6477 ****        30.7500  19.0000  59.7500 Du        
   6478 ****        30.7500  19.0000  60.0000 Du        
   6479 ****        30.7500  19.0000  60.2500 Du        
   6480 ****        30.7500  19.2500  58.0000 Du        
   6481 ****        30.7500  19.2500  58.2500 Du        
   6482 ****        30.7500  19.2500  58.5000 Du        
   6483 ****        30.7500  19.2500  58.7500 Du        
   6484 ****        30.7500  19.2500  59.0000 Du        
   6485 ****        30.7500  19.2500  59.2500 Du        
   6486 ****        30.7500  19.2500  59.5000 Du        
   6487 ****        30.7500  19.2500  59.7500 Du        
   6488 ****        30.7500  19.2500  60.0000 Du        
   6489 ****        30.7500  19.2500  60.2500 Du        
   6490 ****        30.7500  19.5000  58.0000 Du        
   6491 ****        30.7500  19.5000  58.2500 Du        
   6492 ****        30.7500  19.5000  58.5000 Du        
   6493 ****        30.7500  19.5000  58.7500 Du        
   6494 ****        30.7500  19.5000  59.0000 Du        
   6495 ****        30.7500  19.5000  59.2500 Du        
   6496 ****        30.7500  19.5000  59.5000 Du        
   6497 ****        30.7500  19.5000  59.7500 Du        
   6498 ****        30.7500  19.5000  60.0000 Du        
   6499 ****        30.7500  19.5000  60.2500 Du        
   6500 ****        30.7500  19.7500  57.7500 Du        
   6501 ****        30.7500  19.7500  58.0000 Du        
   6502 ****        30.7500  19.7500  58.2500 Du        
   6503 ****        30.7500  19.7500  58.5000 Du        
   6504 ****        30.7500  19.7500  58.7500 Du        
   6505 ****        30.7500  19.7500  59.0000 Du        
   6506 ****        30.7500  19.7500  59.2500 Du        
   6507 ****        30.7500  19.7500  59.5000 Du        
   6508 ****        30.7500  19.7500  59.7500 Du        
   6509 ****        30.7500  19.7500  60.0000 Du        
   6510 ****        30.7500  19.7500  60.2500 Du        
   6511 ****        30.7500  20.0000  57.7500 Du        
   6512 ****        30.7500  20.0000  58.0000 Du        
   6513 ****        30.7500  20.0000  58.2500 Du        
   6514 ****        30.7500  20.0000  58.5000 Du        
   6515 ****        30.7500  20.0000  58.7500 Du        
   6516 ****        30.7500  20.0000  59.0000 Du        
   6517 ****        30.7500  20.0000  59.2500 Du        
   6518 ****        30.7500  20.0000  59.5000 Du        
   6519 ****        30.7500  20.0000  59.7500 Du        
   6520 ****        30.7500  20.0000  60.0000 Du        
   6521 ****        30.7500  20.0000  60.2500 Du        
   6522 ****        30.7500  20.2500  57.7500 Du        
   6523 ****        30.7500  20.2500  58.0000 Du        
   6524 ****        30.7500  20.2500  58.2500 Du        
   6525 ****        30.7500  20.2500  58.5000 Du        
   6526 ****        30.7500  20.2500  58.7500 Du        
   6527 ****        30.7500  20.2500  59.0000 Du        
   6528 ****        30.7500  20.2500  59.2500 Du        
   6529 ****        30.7500  20.2500  59.5000 Du        
   6530 ****        30.7500  20.2500  59.7500 Du        
   6531 ****        30.7500  20.2500  60.0000 Du        
   6532 ****        30.7500  20.5000  58.0000 Du        
   6533 ****        30.7500  20.5000  58.2500 Du        
   6534 ****        30.7500  20.5000  58.5000 Du        
   6535 ****        30.7500  20.5000  58.7500 Du        
   6536 ****        30.7500  20.5000  59.0000 Du        
   6537 ****        30.7500  20.5000  59.2500 Du        
   6538 ****        30.7500  20.5000  59.5000 Du        
   6539 ****        30.7500  20.5000  59.7500 Du        
   6540 ****        30.7500  20.5000  60.0000 Du        
   6541 ****        30.7500  20.7500  58.0000 Du        
   6542 ****        30.7500  20.7500  58.2500 Du        
   6543 ****        30.7500  20.7500  58.5000 Du        
   6544 ****        30.7500  20.7500  58.7500 Du        
   6545 ****        30.7500  20.7500  59.0000 Du        
   6546 ****        30.7500  20.7500  59.2500 Du        
   6547 ****        30.7500  20.7500  59.5000 Du        
   6548 ****        30.7500  20.7500  59.7500 Du        
   6549 ****        30.7500  20.7500  60.0000 Du        
   6550 ****        30.7500  21.0000  58.2500 Du        
   6551 ****        30.7500  21.0000  58.5000 Du        
   6552 ****        30.7500  21.0000  58.7500 Du        
   6553 ****        30.7500  21.0000  59.0000 Du        
   6554 ****        30.7500  21.0000  59.2500 Du        
   6555 ****        30.7500  21.0000  59.5000 Du        
   6556 ****        30.7500  21.0000  59.7500 Du        
   6557 ****        30.7500  21.0000  60.0000 Du        
   6558 ****        30.7500  21.2500  58.2500 Du        
   6559 ****        30.7500  21.2500  58.5000 Du        
   6560 ****        30.7500  21.2500  58.7500 Du        
   6561 ****        30.7500  21.2500  59.0000 Du        
   6562 ****        30.7500  21.2500  59.2500 Du        
   6563 ****        30.7500  21.2500  59.5000 Du        
   6564 ****        30.7500  21.2500  59.7500 Du        
   6565 ****        30.7500  21.2500  60.0000 Du        
   6566 ****        30.7500  21.5000  58.5000 Du        
   6567 ****        30.7500  21.5000  58.7500 Du        
   6568 ****        30.7500  21.5000  59.0000 Du        
   6569 ****        30.7500  21.5000  59.2500 Du        
   6570 ****        30.7500  21.5000  59.5000 Du        
   6571 ****        30.7500  21.5000  59.7500 Du        
   6572 ****        30.7500  21.7500  58.7500 Du        
   6573 ****        30.7500  21.7500  59.0000 Du        
   6574 ****        30.7500  21.7500  59.2500 Du        
   6575 ****        30.7500  21.7500  59.5000 Du        
   6576 ****        30.7500  21.7500  59.7500 Du        
   6577 ****        30.7500  22.0000  58.7500 Du        
   6578 ****        30.7500  22.0000  59.0000 Du        
   6579 ****        30.7500  22.0000  59.2500 Du        
   6580 ****        30.7500  22.0000  59.5000 Du        
   6581 ****        30.7500  22.0000  59.7500 Du        
   6582 ****        30.7500  22.2500  58.7500 Du        
   6583 ****        30.7500  22.2500  59.0000 Du        
   6584 ****        30.7500  22.2500  59.2500 Du        
   6585 ****        30.7500  22.2500  59.5000 Du        
   6586 ****        30.7500  22.2500  59.7500 Du        
   6587 ****        30.7500  22.5000  58.7500 Du        
   6588 ****        30.7500  22.5000  59.0000 Du        
   6589 ****        30.7500  22.5000  59.2500 Du        
   6590 ****        30.7500  22.5000  59.5000 Du        
   6591 ****        30.7500  22.5000  59.7500 Du        
   6592 ****        30.7500  22.7500  58.7500 Du        
   6593 ****        30.7500  22.7500  59.0000 Du        
   6594 ****        30.7500  22.7500  59.2500 Du        
   6595 ****        30.7500  22.7500  59.5000 Du        
   6596 ****        30.7500  22.7500  59.7500 Du        
   6597 ****        30.7500  23.0000  58.7500 Du        
   6598 ****        30.7500  23.0000  59.0000 Du        
   6599 ****        30.7500  23.0000  59.2500 Du        
   6600 ****        30.7500  23.0000  59.5000 Du        
   6601 ****        30.7500  23.0000  59.7500 Du        
   6602 ****        30.7500  23.0000  60.0000 Du        
   6603 ****        30.7500  23.2500  58.7500 Du        
   6604 ****        30.7500  23.2500  59.0000 Du        
   6605 ****        30.7500  23.2500  59.2500 Du        
   6606 ****        30.7500  23.2500  59.5000 Du        
   6607 ****        30.7500  23.2500  59.7500 Du        
   6608 ****        30.7500  23.2500  60.0000 Du        
   6609 ****        30.7500  23.5000  58.7500 Du        
   6610 ****        30.7500  23.5000  59.0000 Du        
   6611 ****        30.7500  23.5000  59.2500 Du        
   6612 ****        30.7500  23.5000  59.5000 Du        
   6613 ****        30.7500  23.5000  59.7500 Du        
   6614 ****        30.7500  23.7500  58.7500 Du        
   6615 ****        30.7500  23.7500  59.0000 Du        
   6616 ****        30.7500  23.7500  59.2500 Du        
   6617 ****        30.7500  23.7500  59.5000 Du        
   6618 ****        30.7500  23.7500  59.7500 Du        
   6619 ****        30.7500  23.7500  60.0000 Du        
   6620 ****        30.7500  24.0000  59.0000 Du        
   6621 ****        30.7500  24.0000  59.2500 Du        
   6622 ****        30.7500  24.0000  59.5000 Du        
   6623 ****        30.7500  24.0000  59.7500 Du        
   6624 ****        30.7500  24.0000  60.0000 Du        
   6625 ****        30.7500  44.7500  46.7500 Du        
   6626 ****        30.7500  45.0000  46.5000 Du        
   6627 ****        30.7500  45.0000  46.7500 Du        
   6628 ****        30.7500  45.2500  46.5000 Du        
   6629 ****        30.7500  45.2500  46.7500 Du        
   6630 ****        30.7500  45.2500  47.0000 Du        
   6631 ****        30.7500  45.5000  46.5000 Du        
   6632 ****        30.7500  45.5000  46.7500 Du        
   6633 ****        30.7500  45.5000  47.0000 Du        
   6634 ****        30.7500  45.7500  46.7500 Du        
   6635 ****        30.7500  45.7500  47.0000 Du        
   6636 ****        31.0000  15.0000  57.7500 Du        
   6637 ****        31.0000  15.0000  58.0000 Du        
   6638 ****        31.0000  15.0000  58.2500 Du        
   6639 ****        31.0000  15.0000  58.5000 Du        
   6640 ****        31.0000  15.2500  57.7500 Du        
   6641 ****        31.0000  15.2500  58.0000 Du        
   6642 ****        31.0000  15.2500  58.2500 Du        
   6643 ****        31.0000  15.2500  58.5000 Du        
   6644 ****        31.0000  15.5000  57.7500 Du        
   6645 ****        31.0000  15.5000  58.0000 Du        
   6646 ****        31.0000  15.5000  58.2500 Du        
   6647 ****        31.0000  15.5000  58.5000 Du        
   6648 ****        31.0000  15.7500  58.0000 Du        
   6649 ****        31.0000  15.7500  58.2500 Du        
   6650 ****        31.0000  15.7500  58.5000 Du        
   6651 ****        31.0000  16.0000  58.0000 Du        
   6652 ****        31.0000  16.0000  58.2500 Du        
   6653 ****        31.0000  16.0000  58.5000 Du        
   6654 ****        31.0000  16.2500  58.0000 Du        
   6655 ****        31.0000  16.2500  58.2500 Du        
   6656 ****        31.0000  16.2500  58.5000 Du        
   6657 ****        31.0000  16.5000  58.0000 Du        
   6658 ****        31.0000  16.5000  58.2500 Du        
   6659 ****        31.0000  16.5000  58.5000 Du        
   6660 ****        31.0000  16.7500  58.0000 Du        
   6661 ****        31.0000  16.7500  58.2500 Du        
   6662 ****        31.0000  16.7500  58.5000 Du        
   6663 ****        31.0000  17.0000  58.0000 Du        
   6664 ****        31.0000  17.0000  58.2500 Du        
   6665 ****        31.0000  17.0000  58.5000 Du        
   6666 ****        31.0000  17.0000  58.7500 Du        
   6667 ****        31.0000  17.2500  58.0000 Du        
   6668 ****        31.0000  17.2500  58.2500 Du        
   6669 ****        31.0000  17.2500  58.5000 Du        
   6670 ****        31.0000  17.2500  58.7500 Du        
   6671 ****        31.0000  17.5000  58.0000 Du        
   6672 ****        31.0000  17.5000  58.2500 Du        
   6673 ****        31.0000  17.5000  58.5000 Du        
   6674 ****        31.0000  17.5000  58.7500 Du        
   6675 ****        31.0000  17.5000  59.0000 Du        
   6676 ****        31.0000  17.7500  58.0000 Du        
   6677 ****        31.0000  17.7500  58.2500 Du        
   6678 ****        31.0000  17.7500  58.5000 Du        
   6679 ****        31.0000  17.7500  58.7500 Du        
   6680 ****        31.0000  17.7500  59.0000 Du        
   6681 ****        31.0000  17.7500  59.2500 Du        
   6682 ****        31.0000  18.0000  58.0000 Du        
   6683 ****        31.0000  18.0000  58.2500 Du        
   6684 ****        31.0000  18.0000  58.5000 Du        
   6685 ****        31.0000  18.0000  58.7500 Du        
   6686 ****        31.0000  18.0000  59.0000 Du        
   6687 ****        31.0000  18.0000  59.2500 Du        
   6688 ****        31.0000  18.0000  59.5000 Du        
   6689 ****        31.0000  18.2500  58.0000 Du        
   6690 ****        31.0000  18.2500  58.2500 Du        
   6691 ****        31.0000  18.2500  58.5000 Du        
   6692 ****        31.0000  18.2500  58.7500 Du        
   6693 ****        31.0000  18.2500  59.0000 Du        
   6694 ****        31.0000  18.2500  59.2500 Du        
   6695 ****        31.0000  18.2500  59.5000 Du        
   6696 ****        31.0000  18.2500  59.7500 Du        
   6697 ****        31.0000  18.2500  60.0000 Du        
   6698 ****        31.0000  18.5000  58.0000 Du        
   6699 ****        31.0000  18.5000  58.2500 Du        
   6700 ****        31.0000  18.5000  58.5000 Du        
   6701 ****        31.0000  18.5000  58.7500 Du        
   6702 ****        31.0000  18.5000  59.0000 Du        
   6703 ****        31.0000  18.5000  59.2500 Du        
   6704 ****        31.0000  18.5000  59.5000 Du        
   6705 ****        31.0000  18.5000  59.7500 Du        
   6706 ****        31.0000  18.5000  60.0000 Du        
   6707 ****        31.0000  18.7500  58.0000 Du        
   6708 ****        31.0000  18.7500  58.2500 Du        
   6709 ****        31.0000  18.7500  58.5000 Du        
   6710 ****        31.0000  18.7500  58.7500 Du        
   6711 ****        31.0000  18.7500  59.0000 Du        
   6712 ****        31.0000  18.7500  59.2500 Du        
   6713 ****        31.0000  18.7500  59.5000 Du        
   6714 ****        31.0000  18.7500  59.7500 Du        
   6715 ****        31.0000  18.7500  60.0000 Du        
   6716 ****        31.0000  18.7500  60.2500 Du        
   6717 ****        31.0000  19.0000  57.7500 Du        
   6718 ****        31.0000  19.0000  58.0000 Du        
   6719 ****        31.0000  19.0000  58.2500 Du        
   6720 ****        31.0000  19.0000  58.5000 Du        
   6721 ****        31.0000  19.0000  58.7500 Du        
   6722 ****        31.0000  19.0000  59.0000 Du        
   6723 ****        31.0000  19.0000  59.2500 Du        
   6724 ****        31.0000  19.0000  59.5000 Du        
   6725 ****        31.0000  19.0000  59.7500 Du        
   6726 ****        31.0000  19.0000  60.0000 Du        
   6727 ****        31.0000  19.0000  60.2500 Du        
   6728 ****        31.0000  19.2500  57.7500 Du        
   6729 ****        31.0000  19.2500  58.0000 Du        
   6730 ****        31.0000  19.2500  58.2500 Du        
   6731 ****        31.0000  19.2500  58.5000 Du        
   6732 ****        31.0000  19.2500  58.7500 Du        
   6733 ****        31.0000  19.2500  59.0000 Du        
   6734 ****        31.0000  19.2500  59.2500 Du        
   6735 ****        31.0000  19.2500  59.5000 Du        
   6736 ****        31.0000  19.2500  59.7500 Du        
   6737 ****        31.0000  19.2500  60.0000 Du        
   6738 ****        31.0000  19.2500  60.2500 Du        
   6739 ****        31.0000  19.5000  57.7500 Du        
   6740 ****        31.0000  19.5000  58.0000 Du        
   6741 ****        31.0000  19.5000  58.2500 Du        
   6742 ****        31.0000  19.5000  58.5000 Du        
   6743 ****        31.0000  19.5000  58.7500 Du        
   6744 ****        31.0000  19.5000  59.0000 Du        
   6745 ****        31.0000  19.5000  59.2500 Du        
   6746 ****        31.0000  19.5000  59.5000 Du        
   6747 ****        31.0000  19.5000  59.7500 Du        
   6748 ****        31.0000  19.5000  60.0000 Du        
   6749 ****        31.0000  19.7500  57.7500 Du        
   6750 ****        31.0000  19.7500  58.0000 Du        
   6751 ****        31.0000  19.7500  58.2500 Du        
   6752 ****        31.0000  19.7500  58.5000 Du        
   6753 ****        31.0000  19.7500  58.7500 Du        
   6754 ****        31.0000  19.7500  59.0000 Du        
   6755 ****        31.0000  19.7500  59.2500 Du        
   6756 ****        31.0000  19.7500  59.5000 Du        
   6757 ****        31.0000  19.7500  59.7500 Du        
   6758 ****        31.0000  19.7500  60.0000 Du        
   6759 ****        31.0000  20.0000  57.5000 Du        
   6760 ****        31.0000  20.0000  57.7500 Du        
   6761 ****        31.0000  20.0000  58.0000 Du        
   6762 ****        31.0000  20.0000  58.2500 Du        
   6763 ****        31.0000  20.0000  58.5000 Du        
   6764 ****        31.0000  20.0000  58.7500 Du        
   6765 ****        31.0000  20.0000  59.0000 Du        
   6766 ****        31.0000  20.0000  59.2500 Du        
   6767 ****        31.0000  20.0000  59.5000 Du        
   6768 ****        31.0000  20.0000  59.7500 Du        
   6769 ****        31.0000  20.0000  60.0000 Du        
   6770 ****        31.0000  20.2500  57.7500 Du        
   6771 ****        31.0000  20.2500  58.0000 Du        
   6772 ****        31.0000  20.2500  58.2500 Du        
   6773 ****        31.0000  20.2500  58.5000 Du        
   6774 ****        31.0000  20.2500  58.7500 Du        
   6775 ****        31.0000  20.2500  59.0000 Du        
   6776 ****        31.0000  20.2500  59.2500 Du        
   6777 ****        31.0000  20.2500  59.5000 Du        
   6778 ****        31.0000  20.2500  59.7500 Du        
   6779 ****        31.0000  20.2500  60.0000 Du        
   6780 ****        31.0000  20.5000  57.7500 Du        
   6781 ****        31.0000  20.5000  58.0000 Du        
   6782 ****        31.0000  20.5000  58.2500 Du        
   6783 ****        31.0000  20.5000  58.5000 Du        
   6784 ****        31.0000  20.5000  58.7500 Du        
   6785 ****        31.0000  20.5000  59.0000 Du        
   6786 ****        31.0000  20.5000  59.2500 Du        
   6787 ****        31.0000  20.5000  59.5000 Du        
   6788 ****        31.0000  20.5000  59.7500 Du        
   6789 ****        31.0000  20.5000  60.0000 Du        
   6790 ****        31.0000  20.7500  58.0000 Du        
   6791 ****        31.0000  20.7500  58.2500 Du        
   6792 ****        31.0000  20.7500  58.5000 Du        
   6793 ****        31.0000  20.7500  58.7500 Du        
   6794 ****        31.0000  20.7500  59.0000 Du        
   6795 ****        31.0000  20.7500  59.2500 Du        
   6796 ****        31.0000  20.7500  59.5000 Du        
   6797 ****        31.0000  20.7500  59.7500 Du        
   6798 ****        31.0000  20.7500  60.0000 Du        
   6799 ****        31.0000  21.0000  58.0000 Du        
   6800 ****        31.0000  21.0000  58.2500 Du        
   6801 ****        31.0000  21.0000  58.5000 Du        
   6802 ****        31.0000  21.0000  58.7500 Du        
   6803 ****        31.0000  21.0000  59.0000 Du        
   6804 ****        31.0000  21.0000  59.2500 Du        
   6805 ****        31.0000  21.0000  59.5000 Du        
   6806 ****        31.0000  21.0000  59.7500 Du        
   6807 ****        31.0000  21.2500  58.2500 Du        
   6808 ****        31.0000  21.2500  58.5000 Du        
   6809 ****        31.0000  21.2500  58.7500 Du        
   6810 ****        31.0000  21.2500  59.0000 Du        
   6811 ****        31.0000  21.2500  59.2500 Du        
   6812 ****        31.0000  21.2500  59.5000 Du        
   6813 ****        31.0000  21.2500  59.7500 Du        
   6814 ****        31.0000  21.5000  58.2500 Du        
   6815 ****        31.0000  21.5000  58.5000 Du        
   6816 ****        31.0000  21.5000  58.7500 Du        
   6817 ****        31.0000  21.5000  59.0000 Du        
   6818 ****        31.0000  21.5000  59.2500 Du        
   6819 ****        31.0000  21.5000  59.5000 Du        
   6820 ****        31.0000  21.5000  59.7500 Du        
   6821 ****        31.0000  21.7500  58.5000 Du        
   6822 ****        31.0000  21.7500  58.7500 Du        
   6823 ****        31.0000  21.7500  59.0000 Du        
   6824 ****        31.0000  21.7500  59.2500 Du        
   6825 ****        31.0000  21.7500  59.5000 Du        
   6826 ****        31.0000  21.7500  59.7500 Du        
   6827 ****        31.0000  22.0000  58.7500 Du        
   6828 ****        31.0000  22.0000  59.0000 Du        
   6829 ****        31.0000  22.0000  59.2500 Du        
   6830 ****        31.0000  22.0000  59.5000 Du        
   6831 ****        31.0000  22.0000  59.7500 Du        
   6832 ****        31.0000  22.2500  58.7500 Du        
   6833 ****        31.0000  22.2500  59.0000 Du        
   6834 ****        31.0000  22.2500  59.2500 Du        
   6835 ****        31.0000  22.2500  59.5000 Du        
   6836 ****        31.0000  22.2500  59.7500 Du        
   6837 ****        31.0000  22.5000  58.7500 Du        
   6838 ****        31.0000  22.5000  59.0000 Du        
   6839 ****        31.0000  22.5000  59.2500 Du        
   6840 ****        31.0000  22.5000  59.5000 Du        
   6841 ****        31.0000  22.5000  59.7500 Du        
   6842 ****        31.0000  22.7500  58.7500 Du        
   6843 ****        31.0000  22.7500  59.0000 Du        
   6844 ****        31.0000  22.7500  59.2500 Du        
   6845 ****        31.0000  22.7500  59.5000 Du        
   6846 ****        31.0000  22.7500  59.7500 Du        
   6847 ****        31.0000  23.0000  58.7500 Du        
   6848 ****        31.0000  23.0000  59.0000 Du        
   6849 ****        31.0000  23.0000  59.2500 Du        
   6850 ****        31.0000  23.0000  59.5000 Du        
   6851 ****        31.0000  23.0000  59.7500 Du        
   6852 ****        31.0000  23.2500  58.7500 Du        
   6853 ****        31.0000  23.2500  59.0000 Du        
   6854 ****        31.0000  23.2500  59.2500 Du        
   6855 ****        31.0000  23.2500  59.5000 Du        
   6856 ****        31.0000  23.2500  59.7500 Du        
   6857 ****        31.0000  23.5000  58.5000 Du        
   6858 ****        31.0000  23.5000  58.7500 Du        
   6859 ****        31.0000  23.5000  59.0000 Du        
   6860 ****        31.0000  23.5000  59.2500 Du        
   6861 ****        31.0000  23.5000  59.5000 Du        
   6862 ****        31.0000  23.5000  59.7500 Du        
   6863 ****        31.0000  23.7500  58.5000 Du        
   6864 ****        31.0000  23.7500  58.7500 Du        
   6865 ****        31.0000  23.7500  59.0000 Du        
   6866 ****        31.0000  23.7500  59.2500 Du        
   6867 ****        31.0000  23.7500  59.5000 Du        
   6868 ****        31.0000  23.7500  59.7500 Du        
   6869 ****        31.0000  23.7500  60.0000 Du        
   6870 ****        31.0000  24.0000  58.7500 Du        
   6871 ****        31.0000  24.0000  59.0000 Du        
   6872 ****        31.0000  24.0000  59.2500 Du        
   6873 ****        31.0000  24.0000  59.5000 Du        
   6874 ****        31.0000  24.0000  60.0000 Du        
   6875 ****        31.0000  24.2500  59.2500 Du        
   6876 ****        31.0000  44.5000  46.7500 Du        
   6877 ****        31.0000  44.7500  46.5000 Du        
   6878 ****        31.0000  44.7500  46.7500 Du        
   6879 ****        31.0000  45.0000  46.5000 Du        
   6880 ****        31.0000  45.0000  46.7500 Du        
   6881 ****        31.0000  45.0000  47.0000 Du        
   6882 ****        31.0000  45.2500  46.5000 Du        
   6883 ****        31.0000  45.2500  46.7500 Du        
   6884 ****        31.0000  45.2500  47.0000 Du        
   6885 ****        31.0000  45.5000  46.5000 Du        
   6886 ****        31.0000  45.5000  46.7500 Du        
   6887 ****        31.0000  45.5000  47.0000 Du        
   6888 ****        31.0000  45.7500  46.5000 Du        
   6889 ****        31.0000  45.7500  46.7500 Du        
   6890 ****        31.0000  45.7500  47.0000 Du        
   6891 ****        31.0000  46.0000  46.5000 Du        
   6892 ****        31.0000  46.0000  46.7500 Du        
   6893 ****        31.0000  46.0000  47.0000 Du        
   6894 ****        31.0000  46.2500  46.7500 Du        
   6895 ****        31.0000  46.2500  47.0000 Du        
   6896 ****        31.2500  15.0000  57.7500 Du        
   6897 ****        31.2500  15.0000  58.0000 Du        
   6898 ****        31.2500  15.0000  58.2500 Du        
   6899 ****        31.2500  15.0000  58.5000 Du        
   6900 ****        31.2500  15.2500  57.7500 Du        
   6901 ****        31.2500  15.2500  58.0000 Du        
   6902 ****        31.2500  15.2500  58.2500 Du        
   6903 ****        31.2500  15.5000  57.7500 Du        
   6904 ****        31.2500  15.5000  58.0000 Du        
   6905 ****        31.2500  15.5000  58.2500 Du        
   6906 ****        31.2500  15.7500  57.7500 Du        
   6907 ****        31.2500  15.7500  58.0000 Du        
   6908 ****        31.2500  15.7500  58.2500 Du        
   6909 ****        31.2500  16.0000  58.0000 Du        
   6910 ****        31.2500  16.0000  58.2500 Du        
   6911 ****        31.2500  16.2500  58.0000 Du        
   6912 ****        31.2500  16.2500  58.2500 Du        
   6913 ****        31.2500  16.5000  58.0000 Du        
   6914 ****        31.2500  16.5000  58.2500 Du        
   6915 ****        31.2500  16.7500  58.0000 Du        
   6916 ****        31.2500  16.7500  58.2500 Du        
   6917 ****        31.2500  16.7500  58.5000 Du        
   6918 ****        31.2500  17.0000  58.0000 Du        
   6919 ****        31.2500  17.0000  58.2500 Du        
   6920 ****        31.2500  17.0000  58.5000 Du        
   6921 ****        31.2500  17.2500  57.7500 Du        
   6922 ****        31.2500  17.2500  58.0000 Du        
   6923 ****        31.2500  17.2500  58.2500 Du        
   6924 ****        31.2500  17.2500  58.5000 Du        
   6925 ****        31.2500  17.2500  58.7500 Du        
   6926 ****        31.2500  17.5000  57.7500 Du        
   6927 ****        31.2500  17.5000  58.0000 Du        
   6928 ****        31.2500  17.5000  58.2500 Du        
   6929 ****        31.2500  17.5000  58.5000 Du        
   6930 ****        31.2500  17.5000  58.7500 Du        
   6931 ****        31.2500  17.7500  57.7500 Du        
   6932 ****        31.2500  17.7500  58.0000 Du        
   6933 ****        31.2500  17.7500  58.2500 Du        
   6934 ****        31.2500  17.7500  58.5000 Du        
   6935 ****        31.2500  17.7500  58.7500 Du        
   6936 ****        31.2500  17.7500  59.0000 Du        
   6937 ****        31.2500  18.0000  57.7500 Du        
   6938 ****        31.2500  18.0000  58.0000 Du        
   6939 ****        31.2500  18.0000  58.2500 Du        
   6940 ****        31.2500  18.0000  58.5000 Du        
   6941 ****        31.2500  18.0000  58.7500 Du        
   6942 ****        31.2500  18.0000  59.0000 Du        
   6943 ****        31.2500  18.0000  59.2500 Du        
   6944 ****        31.2500  18.2500  57.7500 Du        
   6945 ****        31.2500  18.2500  58.0000 Du        
   6946 ****        31.2500  18.2500  58.2500 Du        
   6947 ****        31.2500  18.2500  58.5000 Du        
   6948 ****        31.2500  18.2500  58.7500 Du        
   6949 ****        31.2500  18.2500  59.0000 Du        
   6950 ****        31.2500  18.2500  59.2500 Du        
   6951 ****        31.2500  18.2500  59.5000 Du        
   6952 ****        31.2500  18.2500  59.7500 Du        
   6953 ****        31.2500  18.5000  57.7500 Du        
   6954 ****        31.2500  18.5000  58.0000 Du        
   6955 ****        31.2500  18.5000  58.2500 Du        
   6956 ****        31.2500  18.5000  58.5000 Du        
   6957 ****        31.2500  18.5000  58.7500 Du        
   6958 ****        31.2500  18.5000  59.0000 Du        
   6959 ****        31.2500  18.5000  59.2500 Du        
   6960 ****        31.2500  18.5000  59.5000 Du        
   6961 ****        31.2500  18.5000  59.7500 Du        
   6962 ****        31.2500  18.5000  60.0000 Du        
   6963 ****        31.2500  18.7500  57.7500 Du        
   6964 ****        31.2500  18.7500  58.0000 Du        
   6965 ****        31.2500  18.7500  58.2500 Du        
   6966 ****        31.2500  18.7500  58.5000 Du        
   6967 ****        31.2500  18.7500  58.7500 Du        
   6968 ****        31.2500  18.7500  59.0000 Du        
   6969 ****        31.2500  18.7500  59.2500 Du        
   6970 ****        31.2500  18.7500  59.5000 Du        
   6971 ****        31.2500  18.7500  59.7500 Du        
   6972 ****        31.2500  18.7500  60.0000 Du        
   6973 ****        31.2500  19.0000  57.7500 Du        
   6974 ****        31.2500  19.0000  58.0000 Du        
   6975 ****        31.2500  19.0000  58.2500 Du        
   6976 ****        31.2500  19.0000  58.5000 Du        
   6977 ****        31.2500  19.0000  58.7500 Du        
   6978 ****        31.2500  19.0000  59.0000 Du        
   6979 ****        31.2500  19.0000  59.2500 Du        
   6980 ****        31.2500  19.0000  59.5000 Du        
   6981 ****        31.2500  19.0000  59.7500 Du        
   6982 ****        31.2500  19.0000  60.0000 Du        
   6983 ****        31.2500  19.2500  57.7500 Du        
   6984 ****        31.2500  19.2500  58.0000 Du        
   6985 ****        31.2500  19.2500  58.2500 Du        
   6986 ****        31.2500  19.2500  58.5000 Du        
   6987 ****        31.2500  19.2500  58.7500 Du        
   6988 ****        31.2500  19.2500  59.0000 Du        
   6989 ****        31.2500  19.2500  59.2500 Du        
   6990 ****        31.2500  19.2500  59.5000 Du        
   6991 ****        31.2500  19.2500  59.7500 Du        
   6992 ****        31.2500  19.2500  60.0000 Du        
   6993 ****        31.2500  19.5000  57.5000 Du        
   6994 ****        31.2500  19.5000  57.7500 Du        
   6995 ****        31.2500  19.5000  58.0000 Du        
   6996 ****        31.2500  19.5000  58.2500 Du        
   6997 ****        31.2500  19.5000  58.5000 Du        
   6998 ****        31.2500  19.5000  58.7500 Du        
   6999 ****        31.2500  19.5000  59.0000 Du        
   7000 ****        31.2500  19.5000  59.2500 Du        
   7001 ****        31.2500  19.5000  59.5000 Du        
   7002 ****        31.2500  19.5000  59.7500 Du        
   7003 ****        31.2500  19.5000  60.0000 Du        
   7004 ****        31.2500  19.7500  57.5000 Du        
   7005 ****        31.2500  19.7500  57.7500 Du        
   7006 ****        31.2500  19.7500  58.0000 Du        
   7007 ****        31.2500  19.7500  58.2500 Du        
   7008 ****        31.2500  19.7500  58.5000 Du        
   7009 ****        31.2500  19.7500  58.7500 Du        
   7010 ****        31.2500  19.7500  59.0000 Du        
   7011 ****        31.2500  19.7500  59.2500 Du        
   7012 ****        31.2500  19.7500  59.5000 Du        
   7013 ****        31.2500  19.7500  59.7500 Du        
   7014 ****        31.2500  19.7500  60.0000 Du        
   7015 ****        31.2500  20.0000  57.5000 Du        
   7016 ****        31.2500  20.0000  57.7500 Du        
   7017 ****        31.2500  20.0000  58.0000 Du        
   7018 ****        31.2500  20.0000  58.2500 Du        
   7019 ****        31.2500  20.0000  58.5000 Du        
   7020 ****        31.2500  20.0000  58.7500 Du        
   7021 ****        31.2500  20.0000  59.0000 Du        
   7022 ****        31.2500  20.0000  59.2500 Du        
   7023 ****        31.2500  20.0000  59.5000 Du        
   7024 ****        31.2500  20.0000  59.7500 Du        
   7025 ****        31.2500  20.0000  60.0000 Du        
   7026 ****        31.2500  20.2500  57.5000 Du        
   7027 ****        31.2500  20.2500  57.7500 Du        
   7028 ****        31.2500  20.2500  58.0000 Du        
   7029 ****        31.2500  20.2500  58.2500 Du        
   7030 ****        31.2500  20.2500  58.5000 Du        
   7031 ****        31.2500  20.2500  58.7500 Du        
   7032 ****        31.2500  20.2500  59.0000 Du        
   7033 ****        31.2500  20.2500  59.2500 Du        
   7034 ****        31.2500  20.2500  59.5000 Du        
   7035 ****        31.2500  20.2500  59.7500 Du        
   7036 ****        31.2500  20.5000  57.7500 Du        
   7037 ****        31.2500  20.5000  58.0000 Du        
   7038 ****        31.2500  20.5000  58.2500 Du        
   7039 ****        31.2500  20.5000  58.5000 Du        
   7040 ****        31.2500  20.5000  58.7500 Du        
   7041 ****        31.2500  20.5000  59.0000 Du        
   7042 ****        31.2500  20.5000  59.2500 Du        
   7043 ****        31.2500  20.5000  59.5000 Du        
   7044 ****        31.2500  20.5000  59.7500 Du        
   7045 ****        31.2500  20.7500  57.7500 Du        
   7046 ****        31.2500  20.7500  58.0000 Du        
   7047 ****        31.2500  20.7500  58.2500 Du        
   7048 ****        31.2500  20.7500  58.5000 Du        
   7049 ****        31.2500  20.7500  58.7500 Du        
   7050 ****        31.2500  20.7500  59.0000 Du        
   7051 ****        31.2500  20.7500  59.2500 Du        
   7052 ****        31.2500  20.7500  59.5000 Du        
   7053 ****        31.2500  20.7500  59.7500 Du        
   7054 ****        31.2500  21.0000  58.0000 Du        
   7055 ****        31.2500  21.0000  58.2500 Du        
   7056 ****        31.2500  21.0000  58.5000 Du        
   7057 ****        31.2500  21.0000  58.7500 Du        
   7058 ****        31.2500  21.0000  59.0000 Du        
   7059 ****        31.2500  21.0000  59.2500 Du        
   7060 ****        31.2500  21.0000  59.5000 Du        
   7061 ****        31.2500  21.2500  58.2500 Du        
   7062 ****        31.2500  21.2500  58.5000 Du        
   7063 ****        31.2500  21.2500  58.7500 Du        
   7064 ****        31.2500  21.2500  59.0000 Du        
   7065 ****        31.2500  21.2500  59.2500 Du        
   7066 ****        31.2500  21.2500  59.5000 Du        
   7067 ****        31.2500  21.5000  58.2500 Du        
   7068 ****        31.2500  21.5000  58.5000 Du        
   7069 ****        31.2500  21.5000  58.7500 Du        
   7070 ****        31.2500  21.5000  59.0000 Du        
   7071 ****        31.2500  21.5000  59.2500 Du        
   7072 ****        31.2500  21.5000  59.5000 Du        
   7073 ****        31.2500  21.7500  58.5000 Du        
   7074 ****        31.2500  21.7500  58.7500 Du        
   7075 ****        31.2500  21.7500  59.0000 Du        
   7076 ****        31.2500  21.7500  59.2500 Du        
   7077 ****        31.2500  21.7500  59.5000 Du        
   7078 ****        31.2500  22.0000  58.5000 Du        
   7079 ****        31.2500  22.0000  58.7500 Du        
   7080 ****        31.2500  22.0000  59.0000 Du        
   7081 ****        31.2500  22.0000  59.2500 Du        
   7082 ****        31.2500  22.0000  59.5000 Du        
   7083 ****        31.2500  22.0000  59.7500 Du        
   7084 ****        31.2500  22.2500  58.7500 Du        
   7085 ****        31.2500  22.2500  59.0000 Du        
   7086 ****        31.2500  22.2500  59.2500 Du        
   7087 ****        31.2500  22.2500  59.5000 Du        
   7088 ****        31.2500  22.2500  59.7500 Du        
   7089 ****        31.2500  22.5000  58.5000 Du        
   7090 ****        31.2500  22.5000  58.7500 Du        
   7091 ****        31.2500  22.5000  59.0000 Du        
   7092 ****        31.2500  22.5000  59.2500 Du        
   7093 ****        31.2500  22.5000  59.5000 Du        
   7094 ****        31.2500  22.5000  59.7500 Du        
   7095 ****        31.2500  22.7500  58.5000 Du        
   7096 ****        31.2500  22.7500  58.7500 Du        
   7097 ****        31.2500  22.7500  59.0000 Du        
   7098 ****        31.2500  22.7500  59.2500 Du        
   7099 ****        31.2500  22.7500  59.5000 Du        
   7100 ****        31.2500  22.7500  59.7500 Du        
   7101 ****        31.2500  23.0000  58.5000 Du        
   7102 ****        31.2500  23.0000  58.7500 Du        
   7103 ****        31.2500  23.0000  59.0000 Du        
   7104 ****        31.2500  23.0000  59.2500 Du        
   7105 ****        31.2500  23.0000  59.5000 Du        
   7106 ****        31.2500  23.0000  59.7500 Du        
   7107 ****        31.2500  23.2500  58.5000 Du        
   7108 ****        31.2500  23.2500  58.7500 Du        
   7109 ****        31.2500  23.2500  59.0000 Du        
   7110 ****        31.2500  23.2500  59.2500 Du        
   7111 ****        31.2500  23.2500  59.5000 Du        
   7112 ****        31.2500  23.2500  59.7500 Du        
   7113 ****        31.2500  23.5000  58.5000 Du        
   7114 ****        31.2500  23.5000  58.7500 Du        
   7115 ****        31.2500  23.5000  59.0000 Du        
   7116 ****        31.2500  23.5000  59.2500 Du        
   7117 ****        31.2500  23.5000  59.5000 Du        
   7118 ****        31.2500  23.5000  59.7500 Du        
   7119 ****        31.2500  23.7500  58.5000 Du        
   7120 ****        31.2500  23.7500  58.7500 Du        
   7121 ****        31.2500  23.7500  59.0000 Du        
   7122 ****        31.2500  23.7500  59.2500 Du        
   7123 ****        31.2500  23.7500  59.5000 Du        
   7124 ****        31.2500  23.7500  59.7500 Du        
   7125 ****        31.2500  24.0000  58.7500 Du        
   7126 ****        31.2500  24.0000  59.0000 Du        
   7127 ****        31.2500  24.0000  59.2500 Du        
   7128 ****        31.2500  24.0000  59.5000 Du        
   7129 ****        31.2500  24.0000  59.7500 Du        
   7130 ****        31.2500  24.2500  59.0000 Du        
   7131 ****        31.2500  24.2500  59.2500 Du        
   7132 ****        31.2500  44.0000  46.7500 Du        
   7133 ****        31.2500  44.2500  46.5000 Du        
   7134 ****        31.2500  44.2500  46.7500 Du        
   7135 ****        31.2500  44.5000  46.5000 Du        
   7136 ****        31.2500  44.5000  46.7500 Du        
   7137 ****        31.2500  44.7500  46.2500 Du        
   7138 ****        31.2500  44.7500  46.5000 Du        
   7139 ****        31.2500  44.7500  46.7500 Du        
   7140 ****        31.2500  44.7500  47.0000 Du        
   7141 ****        31.2500  45.0000  46.2500 Du        
   7142 ****        31.2500  45.0000  46.5000 Du        
   7143 ****        31.2500  45.0000  46.7500 Du        
   7144 ****        31.2500  45.0000  47.0000 Du        
   7145 ****        31.2500  45.2500  46.2500 Du        
   7146 ****        31.2500  45.2500  46.5000 Du        
   7147 ****        31.2500  45.2500  46.7500 Du        
   7148 ****        31.2500  45.2500  47.0000 Du        
   7149 ****        31.2500  45.5000  46.2500 Du        
   7150 ****        31.2500  45.5000  46.5000 Du        
   7151 ****        31.2500  45.5000  46.7500 Du        
   7152 ****        31.2500  45.5000  47.0000 Du        
   7153 ****        31.2500  45.7500  46.2500 Du        
   7154 ****        31.2500  45.7500  46.5000 Du        
   7155 ****        31.2500  45.7500  46.7500 Du        
   7156 ****        31.2500  45.7500  47.0000 Du        
   7157 ****        31.2500  46.0000  46.5000 Du        
   7158 ****        31.2500  46.0000  46.7500 Du        
   7159 ****        31.2500  46.0000  47.0000 Du        
   7160 ****        31.2500  46.2500  46.5000 Du        
   7161 ****        31.2500  46.2500  46.7500 Du        
   7162 ****        31.2500  46.2500  47.0000 Du        
   7163 ****        31.5000  15.0000  57.7500 Du        
   7164 ****        31.5000  15.0000  58.0000 Du        
   7165 ****        31.5000  15.0000  58.2500 Du        
   7166 ****        31.5000  15.2500  57.7500 Du        
   7167 ****        31.5000  15.2500  58.0000 Du        
   7168 ****        31.5000  15.5000  57.7500 Du        
   7169 ****        31.5000  15.5000  58.0000 Du        
   7170 ****        31.5000  15.7500  58.0000 Du        
   7171 ****        31.5000  16.0000  58.0000 Du        
   7172 ****        31.5000  16.2500  58.0000 Du        
   7173 ****        31.5000  16.7500  58.0000 Du        
   7174 ****        31.5000  17.0000  58.0000 Du        
   7175 ****        31.5000  17.0000  58.2500 Du        
   7176 ****        31.5000  17.2500  58.0000 Du        
   7177 ****        31.5000  17.2500  58.2500 Du        
   7178 ****        31.5000  17.2500  58.5000 Du        
   7179 ****        31.5000  17.5000  57.7500 Du        
   7180 ****        31.5000  17.5000  58.0000 Du        
   7181 ****        31.5000  17.5000  58.2500 Du        
   7182 ****        31.5000  17.5000  58.5000 Du        
   7183 ****        31.5000  17.5000  58.7500 Du        
   7184 ****        31.5000  17.7500  57.7500 Du        
   7185 ****        31.5000  17.7500  58.0000 Du        
   7186 ****        31.5000  17.7500  58.2500 Du        
   7187 ****        31.5000  17.7500  58.5000 Du        
   7188 ****        31.5000  17.7500  58.7500 Du        
   7189 ****        31.5000  18.0000  57.7500 Du        
   7190 ****        31.5000  18.0000  58.0000 Du        
   7191 ****        31.5000  18.0000  58.2500 Du        
   7192 ****        31.5000  18.0000  58.5000 Du        
   7193 ****        31.5000  18.0000  58.7500 Du        
   7194 ****        31.5000  18.0000  59.0000 Du        
   7195 ****        31.5000  18.2500  57.7500 Du        
   7196 ****        31.5000  18.2500  58.0000 Du        
   7197 ****        31.5000  18.2500  58.2500 Du        
   7198 ****        31.5000  18.2500  58.5000 Du        
   7199 ****        31.5000  18.2500  58.7500 Du        
   7200 ****        31.5000  18.2500  59.0000 Du        
   7201 ****        31.5000  18.2500  59.2500 Du        
   7202 ****        31.5000  18.5000  57.7500 Du        
   7203 ****        31.5000  18.5000  58.0000 Du        
   7204 ****        31.5000  18.5000  58.2500 Du        
   7205 ****        31.5000  18.5000  58.5000 Du        
   7206 ****        31.5000  18.5000  58.7500 Du        
   7207 ****        31.5000  18.5000  59.0000 Du        
   7208 ****        31.5000  18.5000  59.2500 Du        
   7209 ****        31.5000  18.5000  59.5000 Du        
   7210 ****        31.5000  18.5000  59.7500 Du        
   7211 ****        31.5000  18.7500  57.7500 Du        
   7212 ****        31.5000  18.7500  58.0000 Du        
   7213 ****        31.5000  18.7500  58.2500 Du        
   7214 ****        31.5000  18.7500  58.5000 Du        
   7215 ****        31.5000  18.7500  58.7500 Du        
   7216 ****        31.5000  18.7500  59.0000 Du        
   7217 ****        31.5000  18.7500  59.2500 Du        
   7218 ****        31.5000  18.7500  59.5000 Du        
   7219 ****        31.5000  18.7500  59.7500 Du        
   7220 ****        31.5000  18.7500  60.0000 Du        
   7221 ****        31.5000  19.0000  57.7500 Du        
   7222 ****        31.5000  19.0000  58.0000 Du        
   7223 ****        31.5000  19.0000  58.2500 Du        
   7224 ****        31.5000  19.0000  58.5000 Du        
   7225 ****        31.5000  19.0000  58.7500 Du        
   7226 ****        31.5000  19.0000  59.0000 Du        
   7227 ****        31.5000  19.0000  59.2500 Du        
   7228 ****        31.5000  19.0000  59.5000 Du        
   7229 ****        31.5000  19.0000  59.7500 Du        
   7230 ****        31.5000  19.0000  60.0000 Du        
   7231 ****        31.5000  19.2500  57.5000 Du        
   7232 ****        31.5000  19.2500  57.7500 Du        
   7233 ****        31.5000  19.2500  58.0000 Du        
   7234 ****        31.5000  19.2500  58.2500 Du        
   7235 ****        31.5000  19.2500  58.5000 Du        
   7236 ****        31.5000  19.2500  58.7500 Du        
   7237 ****        31.5000  19.2500  59.0000 Du        
   7238 ****        31.5000  19.2500  59.2500 Du        
   7239 ****        31.5000  19.2500  59.5000 Du        
   7240 ****        31.5000  19.2500  59.7500 Du        
   7241 ****        31.5000  19.2500  60.0000 Du        
   7242 ****        31.5000  19.5000  57.5000 Du        
   7243 ****        31.5000  19.5000  57.7500 Du        
   7244 ****        31.5000  19.5000  58.0000 Du        
   7245 ****        31.5000  19.5000  58.2500 Du        
   7246 ****        31.5000  19.5000  58.5000 Du        
   7247 ****        31.5000  19.5000  58.7500 Du        
   7248 ****        31.5000  19.5000  59.0000 Du        
   7249 ****        31.5000  19.5000  59.2500 Du        
   7250 ****        31.5000  19.5000  59.5000 Du        
   7251 ****        31.5000  19.5000  59.7500 Du        
   7252 ****        31.5000  19.7500  57.2500 Du        
   7253 ****        31.5000  19.7500  57.5000 Du        
   7254 ****        31.5000  19.7500  57.7500 Du        
   7255 ****        31.5000  19.7500  58.0000 Du        
   7256 ****        31.5000  19.7500  58.2500 Du        
   7257 ****        31.5000  19.7500  58.5000 Du        
   7258 ****        31.5000  19.7500  58.7500 Du        
   7259 ****        31.5000  19.7500  59.0000 Du        
   7260 ****        31.5000  19.7500  59.2500 Du        
   7261 ****        31.5000  19.7500  59.5000 Du        
   7262 ****        31.5000  19.7500  59.7500 Du        
   7263 ****        31.5000  20.0000  57.5000 Du        
   7264 ****        31.5000  20.0000  57.7500 Du        
   7265 ****        31.5000  20.0000  58.0000 Du        
   7266 ****        31.5000  20.0000  58.2500 Du        
   7267 ****        31.5000  20.0000  58.5000 Du        
   7268 ****        31.5000  20.0000  58.7500 Du        
   7269 ****        31.5000  20.0000  59.0000 Du        
   7270 ****        31.5000  20.0000  59.2500 Du        
   7271 ****        31.5000  20.0000  59.5000 Du        
   7272 ****        31.5000  20.0000  59.7500 Du        
   7273 ****        31.5000  20.2500  57.5000 Du        
   7274 ****        31.5000  20.2500  57.7500 Du        
   7275 ****        31.5000  20.2500  58.0000 Du        
   7276 ****        31.5000  20.2500  58.2500 Du        
   7277 ****        31.5000  20.2500  58.5000 Du        
   7278 ****        31.5000  20.2500  58.7500 Du        
   7279 ****        31.5000  20.2500  59.0000 Du        
   7280 ****        31.5000  20.2500  59.2500 Du        
   7281 ****        31.5000  20.2500  59.5000 Du        
   7282 ****        31.5000  20.2500  59.7500 Du        
   7283 ****        31.5000  20.5000  57.7500 Du        
   7284 ****        31.5000  20.5000  58.0000 Du        
   7285 ****        31.5000  20.5000  58.2500 Du        
   7286 ****        31.5000  20.5000  58.5000 Du        
   7287 ****        31.5000  20.5000  58.7500 Du        
   7288 ****        31.5000  20.5000  59.0000 Du        
   7289 ****        31.5000  20.5000  59.2500 Du        
   7290 ****        31.5000  20.7500  57.7500 Du        
   7291 ****        31.5000  20.7500  58.0000 Du        
   7292 ****        31.5000  20.7500  58.2500 Du        
   7293 ****        31.5000  20.7500  58.5000 Du        
   7294 ****        31.5000  20.7500  58.7500 Du        
   7295 ****        31.5000  20.7500  59.0000 Du        
   7296 ****        31.5000  20.7500  59.2500 Du        
   7297 ****        31.5000  20.7500  59.5000 Du        
   7298 ****        31.5000  21.0000  58.0000 Du        
   7299 ****        31.5000  21.0000  58.2500 Du        
   7300 ****        31.5000  21.0000  58.5000 Du        
   7301 ****        31.5000  21.0000  58.7500 Du        
   7302 ****        31.5000  21.0000  59.0000 Du        
   7303 ****        31.5000  21.0000  59.2500 Du        
   7304 ****        31.5000  21.2500  58.0000 Du        
   7305 ****        31.5000  21.2500  58.2500 Du        
   7306 ****        31.5000  21.2500  58.5000 Du        
   7307 ****        31.5000  21.2500  58.7500 Du        
   7308 ****        31.5000  21.2500  59.0000 Du        
   7309 ****        31.5000  21.2500  59.2500 Du        
   7310 ****        31.5000  21.5000  58.2500 Du        
   7311 ****        31.5000  21.5000  58.5000 Du        
   7312 ****        31.5000  21.5000  58.7500 Du        
   7313 ****        31.5000  21.5000  59.0000 Du        
   7314 ****        31.5000  21.5000  59.2500 Du        
   7315 ****        31.5000  21.7500  58.2500 Du        
   7316 ****        31.5000  21.7500  58.5000 Du        
   7317 ****        31.5000  21.7500  58.7500 Du        
   7318 ****        31.5000  21.7500  59.0000 Du        
   7319 ****        31.5000  21.7500  59.2500 Du        
   7320 ****        31.5000  22.0000  58.5000 Du        
   7321 ****        31.5000  22.0000  58.7500 Du        
   7322 ****        31.5000  22.0000  59.0000 Du        
   7323 ****        31.5000  22.0000  59.2500 Du        
   7324 ****        31.5000  22.2500  58.5000 Du        
   7325 ****        31.5000  22.2500  58.7500 Du        
   7326 ****        31.5000  22.2500  59.0000 Du        
   7327 ****        31.5000  22.2500  59.2500 Du        
   7328 ****        31.5000  22.5000  58.5000 Du        
   7329 ****        31.5000  22.5000  58.7500 Du        
   7330 ****        31.5000  22.5000  59.0000 Du        
   7331 ****        31.5000  22.5000  59.2500 Du        
   7332 ****        31.5000  22.7500  58.5000 Du        
   7333 ****        31.5000  22.7500  58.7500 Du        
   7334 ****        31.5000  22.7500  59.0000 Du        
   7335 ****        31.5000  22.7500  59.2500 Du        
   7336 ****        31.5000  23.0000  58.5000 Du        
   7337 ****        31.5000  23.0000  58.7500 Du        
   7338 ****        31.5000  23.0000  59.0000 Du        
   7339 ****        31.5000  23.0000  59.2500 Du        
   7340 ****        31.5000  23.2500  58.5000 Du        
   7341 ****        31.5000  23.2500  58.7500 Du        
   7342 ****        31.5000  23.2500  59.0000 Du        
   7343 ****        31.5000  23.2500  59.2500 Du        
   7344 ****        31.5000  23.5000  58.5000 Du        
   7345 ****        31.5000  23.5000  58.7500 Du        
   7346 ****        31.5000  23.5000  59.0000 Du        
   7347 ****        31.5000  23.5000  59.2500 Du        
   7348 ****        31.5000  23.7500  58.5000 Du        
   7349 ****        31.5000  23.7500  58.7500 Du        
   7350 ****        31.5000  23.7500  59.0000 Du        
   7351 ****        31.5000  23.7500  59.2500 Du        
   7352 ****        31.5000  24.0000  58.7500 Du        
   7353 ****        31.5000  24.0000  59.0000 Du        
   7354 ****        31.5000  24.0000  59.2500 Du        
   7355 ****        31.5000  24.2500  58.7500 Du        
   7356 ****        31.5000  24.2500  59.0000 Du        
   7357 ****        31.5000  24.2500  59.2500 Du        
   7358 ****        31.5000  44.0000  46.5000 Du        
   7359 ****        31.5000  44.0000  46.7500 Du        
   7360 ****        31.5000  44.2500  46.2500 Du        
   7361 ****        31.5000  44.2500  46.5000 Du        
   7362 ****        31.5000  44.2500  46.7500 Du        
   7363 ****        31.5000  44.5000  46.5000 Du        
   7364 ****        31.5000  44.5000  46.7500 Du        
   7365 ****        31.5000  44.7500  46.2500 Du        
   7366 ****        31.5000  44.7500  46.5000 Du        
   7367 ****        31.5000  44.7500  46.7500 Du        
   7368 ****        31.5000  45.0000  46.2500 Du        
   7369 ****        31.5000  45.0000  46.5000 Du        
   7370 ****        31.5000  45.0000  46.7500 Du        
   7371 ****        31.5000  45.0000  47.0000 Du        
   7372 ****        31.5000  45.2500  46.2500 Du        
   7373 ****        31.5000  45.2500  46.5000 Du        
   7374 ****        31.5000  45.2500  46.7500 Du        
   7375 ****        31.5000  45.2500  47.0000 Du        
   7376 ****        31.5000  45.5000  46.2500 Du        
   7377 ****        31.5000  45.5000  46.5000 Du        
   7378 ****        31.5000  45.5000  46.7500 Du        
   7379 ****        31.5000  45.7500  46.2500 Du        
   7380 ****        31.5000  45.7500  46.5000 Du        
   7381 ****        31.5000  45.7500  46.7500 Du        
   7382 ****        31.5000  46.0000  46.7500 Du        
   7383 ****        31.7500  15.0000  57.7500 Du        
   7384 ****        31.7500  15.0000  58.0000 Du        
   7385 ****        31.7500  15.2500  57.7500 Du        
   7386 ****        31.7500  15.2500  58.0000 Du        
   7387 ****        31.7500  15.5000  57.7500 Du        
   7388 ****        31.7500  15.5000  58.0000 Du        
   7389 ****        31.7500  15.7500  57.7500 Du        
   7390 ****        31.7500  15.7500  58.0000 Du        
   7391 ****        31.7500  16.0000  57.7500 Du        
   7392 ****        31.7500  16.0000  58.0000 Du        
   7393 ****        31.7500  16.2500  57.7500 Du        
   7394 ****        31.7500  16.2500  58.0000 Du        
   7395 ****        31.7500  16.5000  58.0000 Du        
   7396 ****        31.7500  16.7500  57.7500 Du        
   7397 ****        31.7500  16.7500  58.0000 Du        
   7398 ****        31.7500  17.0000  57.7500 Du        
   7399 ****        31.7500  17.0000  58.0000 Du        
   7400 ****        31.7500  17.0000  58.2500 Du        
   7401 ****        31.7500  17.2500  57.7500 Du        
   7402 ****        31.7500  17.2500  58.0000 Du        
   7403 ****        31.7500  17.2500  58.2500 Du        
   7404 ****        31.7500  17.5000  57.7500 Du        
   7405 ****        31.7500  17.5000  58.0000 Du        
   7406 ****        31.7500  17.5000  58.2500 Du        
   7407 ****        31.7500  17.5000  58.5000 Du        
   7408 ****        31.7500  17.7500  57.5000 Du        
   7409 ****        31.7500  17.7500  57.7500 Du        
   7410 ****        31.7500  17.7500  58.0000 Du        
   7411 ****        31.7500  17.7500  58.2500 Du        
   7412 ****        31.7500  17.7500  58.5000 Du        
   7413 ****        31.7500  17.7500  58.7500 Du        
   7414 ****        31.7500  18.0000  57.5000 Du        
   7415 ****        31.7500  18.0000  57.7500 Du        
   7416 ****        31.7500  18.0000  58.0000 Du        
   7417 ****        31.7500  18.0000  58.2500 Du        
   7418 ****        31.7500  18.0000  58.5000 Du        
   7419 ****        31.7500  18.0000  58.7500 Du        
   7420 ****        31.7500  18.0000  59.0000 Du        
   7421 ****        31.7500  18.2500  57.5000 Du        
   7422 ****        31.7500  18.2500  57.7500 Du        
   7423 ****        31.7500  18.2500  58.0000 Du        
   7424 ****        31.7500  18.2500  58.2500 Du        
   7425 ****        31.7500  18.2500  58.5000 Du        
   7426 ****        31.7500  18.2500  58.7500 Du        
   7427 ****        31.7500  18.2500  59.0000 Du        
   7428 ****        31.7500  18.2500  59.2500 Du        
   7429 ****        31.7500  18.5000  57.5000 Du        
   7430 ****        31.7500  18.5000  57.7500 Du        
   7431 ****        31.7500  18.5000  58.0000 Du        
   7432 ****        31.7500  18.5000  58.2500 Du        
   7433 ****        31.7500  18.5000  58.5000 Du        
   7434 ****        31.7500  18.5000  58.7500 Du        
   7435 ****        31.7500  18.5000  59.0000 Du        
   7436 ****        31.7500  18.5000  59.2500 Du        
   7437 ****        31.7500  18.5000  59.5000 Du        
   7438 ****        31.7500  18.7500  57.5000 Du        
   7439 ****        31.7500  18.7500  57.7500 Du        
   7440 ****        31.7500  18.7500  58.0000 Du        
   7441 ****        31.7500  18.7500  58.2500 Du        
   7442 ****        31.7500  18.7500  58.5000 Du        
   7443 ****        31.7500  18.7500  58.7500 Du        
   7444 ****        31.7500  18.7500  59.0000 Du        
   7445 ****        31.7500  18.7500  59.2500 Du        
   7446 ****        31.7500  18.7500  59.5000 Du        
   7447 ****        31.7500  18.7500  59.7500 Du        
   7448 ****        31.7500  18.7500  60.0000 Du        
   7449 ****        31.7500  19.0000  57.2500 Du        
   7450 ****        31.7500  19.0000  57.5000 Du        
   7451 ****        31.7500  19.0000  57.7500 Du        
   7452 ****        31.7500  19.0000  58.0000 Du        
   7453 ****        31.7500  19.0000  58.2500 Du        
   7454 ****        31.7500  19.0000  58.5000 Du        
   7455 ****        31.7500  19.0000  58.7500 Du        
   7456 ****        31.7500  19.0000  59.0000 Du        
   7457 ****        31.7500  19.0000  59.2500 Du        
   7458 ****        31.7500  19.0000  59.5000 Du        
   7459 ****        31.7500  19.0000  59.7500 Du        
   7460 ****        31.7500  19.0000  60.0000 Du        
   7461 ****        31.7500  19.2500  57.2500 Du        
   7462 ****        31.7500  19.2500  57.5000 Du        
   7463 ****        31.7500  19.2500  57.7500 Du        
   7464 ****        31.7500  19.2500  58.0000 Du        
   7465 ****        31.7500  19.2500  58.2500 Du        
   7466 ****        31.7500  19.2500  58.5000 Du        
   7467 ****        31.7500  19.2500  58.7500 Du        
   7468 ****        31.7500  19.2500  59.0000 Du        
   7469 ****        31.7500  19.2500  59.2500 Du        
   7470 ****        31.7500  19.2500  59.5000 Du        
   7471 ****        31.7500  19.2500  59.7500 Du        
   7472 ****        31.7500  19.2500  60.0000 Du        
   7473 ****        31.7500  19.5000  57.2500 Du        
   7474 ****        31.7500  19.5000  57.5000 Du        
   7475 ****        31.7500  19.5000  57.7500 Du        
   7476 ****        31.7500  19.5000  58.0000 Du        
   7477 ****        31.7500  19.5000  58.2500 Du        
   7478 ****        31.7500  19.5000  58.5000 Du        
   7479 ****        31.7500  19.5000  58.7500 Du        
   7480 ****        31.7500  19.5000  59.0000 Du        
   7481 ****        31.7500  19.5000  59.2500 Du        
   7482 ****        31.7500  19.5000  59.5000 Du        
   7483 ****        31.7500  19.5000  59.7500 Du        
   7484 ****        31.7500  19.7500  57.2500 Du        
   7485 ****        31.7500  19.7500  57.5000 Du        
   7486 ****        31.7500  19.7500  57.7500 Du        
   7487 ****        31.7500  19.7500  58.0000 Du        
   7488 ****        31.7500  19.7500  58.2500 Du        
   7489 ****        31.7500  19.7500  58.5000 Du        
   7490 ****        31.7500  19.7500  58.7500 Du        
   7491 ****        31.7500  19.7500  59.0000 Du        
   7492 ****        31.7500  19.7500  59.2500 Du        
   7493 ****        31.7500  19.7500  59.5000 Du        
   7494 ****        31.7500  19.7500  59.7500 Du        
   7495 ****        31.7500  20.0000  57.2500 Du        
   7496 ****        31.7500  20.0000  57.5000 Du        
   7497 ****        31.7500  20.0000  57.7500 Du        
   7498 ****        31.7500  20.0000  58.0000 Du        
   7499 ****        31.7500  20.0000  58.2500 Du        
   7500 ****        31.7500  20.0000  58.5000 Du        
   7501 ****        31.7500  20.0000  58.7500 Du        
   7502 ****        31.7500  20.0000  59.0000 Du        
   7503 ****        31.7500  20.0000  59.2500 Du        
   7504 ****        31.7500  20.0000  59.5000 Du        
   7505 ****        31.7500  20.0000  59.7500 Du        
   7506 ****        31.7500  20.2500  57.5000 Du        
   7507 ****        31.7500  20.2500  57.7500 Du        
   7508 ****        31.7500  20.2500  58.0000 Du        
   7509 ****        31.7500  20.2500  58.2500 Du        
   7510 ****        31.7500  20.2500  58.5000 Du        
   7511 ****        31.7500  20.2500  58.7500 Du        
   7512 ****        31.7500  20.2500  59.0000 Du        
   7513 ****        31.7500  20.2500  59.2500 Du        
   7514 ****        31.7500  20.5000  57.7500 Du        
   7515 ****        31.7500  20.5000  58.0000 Du        
   7516 ****        31.7500  20.5000  58.2500 Du        
   7517 ****        31.7500  20.5000  58.5000 Du        
   7518 ****        31.7500  20.5000  58.7500 Du        
   7519 ****        31.7500  20.5000  59.0000 Du        
   7520 ****        31.7500  20.5000  59.2500 Du        
   7521 ****        31.7500  20.7500  57.7500 Du        
   7522 ****        31.7500  20.7500  58.0000 Du        
   7523 ****        31.7500  20.7500  58.2500 Du        
   7524 ****        31.7500  20.7500  58.5000 Du        
   7525 ****        31.7500  20.7500  58.7500 Du        
   7526 ****        31.7500  20.7500  59.0000 Du        
   7527 ****        31.7500  20.7500  59.2500 Du        
   7528 ****        31.7500  21.0000  57.7500 Du        
   7529 ****        31.7500  21.0000  58.0000 Du        
   7530 ****        31.7500  21.0000  58.2500 Du        
   7531 ****        31.7500  21.0000  58.5000 Du        
   7532 ****        31.7500  21.0000  58.7500 Du        
   7533 ****        31.7500  21.0000  59.0000 Du        
   7534 ****        31.7500  21.0000  59.2500 Du        
   7535 ****        31.7500  21.2500  58.0000 Du        
   7536 ****        31.7500  21.2500  58.2500 Du        
   7537 ****        31.7500  21.2500  58.5000 Du        
   7538 ****        31.7500  21.2500  58.7500 Du        
   7539 ****        31.7500  21.2500  59.0000 Du        
   7540 ****        31.7500  21.2500  59.2500 Du        
   7541 ****        31.7500  21.5000  58.2500 Du        
   7542 ****        31.7500  21.5000  58.5000 Du        
   7543 ****        31.7500  21.5000  58.7500 Du        
   7544 ****        31.7500  21.5000  59.0000 Du        
   7545 ****        31.7500  21.5000  59.2500 Du        
   7546 ****        31.7500  21.7500  58.2500 Du        
   7547 ****        31.7500  21.7500  58.5000 Du        
   7548 ****        31.7500  21.7500  58.7500 Du        
   7549 ****        31.7500  21.7500  59.0000 Du        
   7550 ****        31.7500  21.7500  59.2500 Du        
   7551 ****        31.7500  22.0000  58.2500 Du        
   7552 ****        31.7500  22.0000  58.5000 Du        
   7553 ****        31.7500  22.0000  58.7500 Du        
   7554 ****        31.7500  22.0000  59.0000 Du        
   7555 ****        31.7500  22.0000  59.2500 Du        
   7556 ****        31.7500  22.2500  58.2500 Du        
   7557 ****        31.7500  22.2500  58.5000 Du        
   7558 ****        31.7500  22.2500  58.7500 Du        
   7559 ****        31.7500  22.2500  59.0000 Du        
   7560 ****        31.7500  22.2500  59.2500 Du        
   7561 ****        31.7500  22.5000  58.2500 Du        
   7562 ****        31.7500  22.5000  58.5000 Du        
   7563 ****        31.7500  22.5000  58.7500 Du        
   7564 ****        31.7500  22.5000  59.0000 Du        
   7565 ****        31.7500  22.5000  59.2500 Du        
   7566 ****        31.7500  22.7500  58.2500 Du        
   7567 ****        31.7500  22.7500  58.5000 Du        
   7568 ****        31.7500  22.7500  58.7500 Du        
   7569 ****        31.7500  22.7500  59.0000 Du        
   7570 ****        31.7500  22.7500  59.2500 Du        
   7571 ****        31.7500  23.0000  58.2500 Du        
   7572 ****        31.7500  23.0000  58.5000 Du        
   7573 ****        31.7500  23.0000  58.7500 Du        
   7574 ****        31.7500  23.0000  59.0000 Du        
   7575 ****        31.7500  23.0000  59.2500 Du        
   7576 ****        31.7500  23.2500  58.5000 Du        
   7577 ****        31.7500  23.2500  58.7500 Du        
   7578 ****        31.7500  23.2500  59.0000 Du        
   7579 ****        31.7500  23.2500  59.2500 Du        
   7580 ****        31.7500  23.5000  58.5000 Du        
   7581 ****        31.7500  23.5000  58.7500 Du        
   7582 ****        31.7500  23.5000  59.0000 Du        
   7583 ****        31.7500  23.5000  59.2500 Du        
   7584 ****        31.7500  23.7500  58.7500 Du        
   7585 ****        31.7500  23.7500  59.0000 Du        
   7586 ****        31.7500  23.7500  59.2500 Du        
   7587 ****        31.7500  24.0000  58.7500 Du        
   7588 ****        31.7500  24.0000  59.0000 Du        
   7589 ****        31.7500  24.0000  59.2500 Du        
   7590 ****        31.7500  24.2500  59.0000 Du        
   7591 ****        31.7500  24.2500  59.2500 Du        
   7592 ****        31.7500  43.2500  46.2500 Du        
   7593 ****        31.7500  43.2500  46.5000 Du        
   7594 ****        31.7500  43.5000  46.2500 Du        
   7595 ****        31.7500  43.5000  46.5000 Du        
   7596 ****        31.7500  43.5000  46.7500 Du        
   7597 ****        31.7500  43.7500  46.2500 Du        
   7598 ****        31.7500  43.7500  46.5000 Du        
   7599 ****        31.7500  43.7500  46.7500 Du        
   7600 ****        31.7500  44.0000  46.2500 Du        
   7601 ****        31.7500  44.0000  46.5000 Du        
   7602 ****        31.7500  44.0000  46.7500 Du        
   7603 ****        31.7500  44.2500  46.2500 Du        
   7604 ****        31.7500  44.2500  46.5000 Du        
   7605 ****        31.7500  44.2500  46.7500 Du        
   7606 ****        31.7500  44.5000  46.2500 Du        
   7607 ****        31.7500  44.5000  46.5000 Du        
   7608 ****        31.7500  44.5000  46.7500 Du        
   7609 ****        31.7500  44.7500  46.0000 Du        
   7610 ****        31.7500  44.7500  46.2500 Du        
   7611 ****        31.7500  44.7500  46.5000 Du        
   7612 ****        31.7500  44.7500  46.7500 Du        
   7613 ****        31.7500  44.7500  47.0000 Du        
   7614 ****        31.7500  45.0000  46.0000 Du        
   7615 ****        31.7500  45.0000  46.2500 Du        
   7616 ****        31.7500  45.0000  46.5000 Du        
   7617 ****        31.7500  45.0000  46.7500 Du        
   7618 ****        31.7500  45.0000  47.0000 Du        
   7619 ****        31.7500  45.2500  46.0000 Du        
   7620 ****        31.7500  45.2500  46.2500 Du        
   7621 ****        31.7500  45.2500  46.5000 Du        
   7622 ****        31.7500  45.2500  46.7500 Du        
   7623 ****        31.7500  45.2500  47.0000 Du        
   7624 ****        31.7500  45.5000  46.0000 Du        
   7625 ****        31.7500  45.5000  46.2500 Du        
   7626 ****        31.7500  45.5000  46.5000 Du        
   7627 ****        31.7500  45.5000  46.7500 Du        
   7628 ****        31.7500  45.7500  46.0000 Du        
   7629 ****        31.7500  45.7500  46.2500 Du        
   7630 ****        31.7500  45.7500  46.5000 Du        
   7631 ****        31.7500  45.7500  46.7500 Du        
   7632 ****        31.7500  46.0000  46.7500 Du        
   7633 ****        32.0000  15.0000  57.5000 Du        
   7634 ****        32.0000  15.0000  57.7500 Du        
   7635 ****        32.0000  15.0000  58.0000 Du        
   7636 ****        32.0000  15.2500  57.7500 Du        
   7637 ****        32.0000  15.2500  58.0000 Du        
   7638 ****        32.0000  15.5000  57.7500 Du        
   7639 ****        32.0000  15.5000  58.0000 Du        
   7640 ****        32.0000  15.7500  57.7500 Du        
   7641 ****        32.0000  15.7500  58.0000 Du        
   7642 ****        32.0000  16.0000  57.7500 Du        
   7643 ****        32.0000  16.2500  57.7500 Du        
   7644 ****        32.0000  16.2500  58.0000 Du        
   7645 ****        32.0000  16.5000  57.7500 Du        
   7646 ****        32.0000  16.7500  57.7500 Du        
   7647 ****        32.0000  16.7500  58.0000 Du        
   7648 ****        32.0000  17.0000  57.7500 Du        
   7649 ****        32.0000  17.0000  58.0000 Du        
   7650 ****        32.0000  17.2500  57.7500 Du        
   7651 ****        32.0000  17.2500  58.0000 Du        
   7652 ****        32.0000  17.2500  58.2500 Du        
   7653 ****        32.0000  17.5000  57.5000 Du        
   7654 ****        32.0000  17.5000  57.7500 Du        
   7655 ****        32.0000  17.5000  58.0000 Du        
   7656 ****        32.0000  17.5000  58.2500 Du        
   7657 ****        32.0000  17.7500  57.5000 Du        
   7658 ****        32.0000  17.7500  57.7500 Du        
   7659 ****        32.0000  17.7500  58.0000 Du        
   7660 ****        32.0000  17.7500  58.2500 Du        
   7661 ****        32.0000  17.7500  58.5000 Du        
   7662 ****        32.0000  18.0000  57.2500 Du        
   7663 ****        32.0000  18.0000  57.5000 Du        
   7664 ****        32.0000  18.0000  57.7500 Du        
   7665 ****        32.0000  18.0000  58.0000 Du        
   7666 ****        32.0000  18.0000  58.2500 Du        
   7667 ****        32.0000  18.0000  58.5000 Du        
   7668 ****        32.0000  18.0000  58.7500 Du        
   7669 ****        32.0000  18.2500  57.2500 Du        
   7670 ****        32.0000  18.2500  57.5000 Du        
   7671 ****        32.0000  18.2500  57.7500 Du        
   7672 ****        32.0000  18.2500  58.0000 Du        
   7673 ****        32.0000  18.2500  58.2500 Du        
   7674 ****        32.0000  18.2500  58.5000 Du        
   7675 ****        32.0000  18.2500  58.7500 Du        
   7676 ****        32.0000  18.2500  59.0000 Du        
   7677 ****        32.0000  18.5000  57.2500 Du        
   7678 ****        32.0000  18.5000  57.5000 Du        
   7679 ****        32.0000  18.5000  57.7500 Du        
   7680 ****        32.0000  18.5000  58.0000 Du        
   7681 ****        32.0000  18.5000  58.2500 Du        
   7682 ****        32.0000  18.5000  58.5000 Du        
   7683 ****        32.0000  18.5000  58.7500 Du        
   7684 ****        32.0000  18.5000  59.0000 Du        
   7685 ****        32.0000  18.5000  59.2500 Du        
   7686 ****        32.0000  18.7500  57.2500 Du        
   7687 ****        32.0000  18.7500  57.5000 Du        
   7688 ****        32.0000  18.7500  57.7500 Du        
   7689 ****        32.0000  18.7500  58.0000 Du        
   7690 ****        32.0000  18.7500  58.2500 Du        
   7691 ****        32.0000  18.7500  58.5000 Du        
   7692 ****        32.0000  18.7500  58.7500 Du        
   7693 ****        32.0000  18.7500  59.0000 Du        
   7694 ****        32.0000  18.7500  59.2500 Du        
   7695 ****        32.0000  18.7500  59.5000 Du        
   7696 ****        32.0000  18.7500  59.7500 Du        
   7697 ****        32.0000  19.0000  57.2500 Du        
   7698 ****        32.0000  19.0000  57.5000 Du        
   7699 ****        32.0000  19.0000  57.7500 Du        
   7700 ****        32.0000  19.0000  58.0000 Du        
   7701 ****        32.0000  19.0000  58.2500 Du        
   7702 ****        32.0000  19.0000  58.5000 Du        
   7703 ****        32.0000  19.0000  58.7500 Du        
   7704 ****        32.0000  19.0000  59.0000 Du        
   7705 ****        32.0000  19.0000  59.2500 Du        
   7706 ****        32.0000  19.0000  59.5000 Du        
   7707 ****        32.0000  19.0000  59.7500 Du        
   7708 ****        32.0000  19.0000  60.0000 Du        
   7709 ****        32.0000  19.2500  57.2500 Du        
   7710 ****        32.0000  19.2500  57.5000 Du        
   7711 ****        32.0000  19.2500  57.7500 Du        
   7712 ****        32.0000  19.2500  58.0000 Du        
   7713 ****        32.0000  19.2500  58.2500 Du        
   7714 ****        32.0000  19.2500  58.5000 Du        
   7715 ****        32.0000  19.2500  58.7500 Du        
   7716 ****        32.0000  19.2500  59.0000 Du        
   7717 ****        32.0000  19.2500  59.2500 Du        
   7718 ****        32.0000  19.2500  59.5000 Du        
   7719 ****        32.0000  19.2500  59.7500 Du        
   7720 ****        32.0000  19.5000  57.2500 Du        
   7721 ****        32.0000  19.5000  57.5000 Du        
   7722 ****        32.0000  19.5000  57.7500 Du        
   7723 ****        32.0000  19.5000  58.0000 Du        
   7724 ****        32.0000  19.5000  58.2500 Du        
   7725 ****        32.0000  19.5000  58.5000 Du        
   7726 ****        32.0000  19.5000  58.7500 Du        
   7727 ****        32.0000  19.5000  59.0000 Du        
   7728 ****        32.0000  19.5000  59.2500 Du        
   7729 ****        32.0000  19.5000  59.5000 Du        
   7730 ****        32.0000  19.7500  57.2500 Du        
   7731 ****        32.0000  19.7500  57.5000 Du        
   7732 ****        32.0000  19.7500  57.7500 Du        
   7733 ****        32.0000  19.7500  58.0000 Du        
   7734 ****        32.0000  19.7500  58.2500 Du        
   7735 ****        32.0000  19.7500  58.5000 Du        
   7736 ****        32.0000  19.7500  58.7500 Du        
   7737 ****        32.0000  19.7500  59.0000 Du        
   7738 ****        32.0000  19.7500  59.2500 Du        
   7739 ****        32.0000  19.7500  59.5000 Du        
   7740 ****        32.0000  19.7500  59.7500 Du        
   7741 ****        32.0000  20.0000  57.2500 Du        
   7742 ****        32.0000  20.0000  57.5000 Du        
   7743 ****        32.0000  20.0000  57.7500 Du        
   7744 ****        32.0000  20.0000  58.0000 Du        
   7745 ****        32.0000  20.0000  58.2500 Du        
   7746 ****        32.0000  20.0000  58.5000 Du        
   7747 ****        32.0000  20.0000  58.7500 Du        
   7748 ****        32.0000  20.0000  59.0000 Du        
   7749 ****        32.0000  20.0000  59.2500 Du        
   7750 ****        32.0000  20.0000  59.5000 Du        
   7751 ****        32.0000  20.0000  59.7500 Du        
   7752 ****        32.0000  20.2500  57.5000 Du        
   7753 ****        32.0000  20.2500  57.7500 Du        
   7754 ****        32.0000  20.2500  58.0000 Du        
   7755 ****        32.0000  20.2500  58.2500 Du        
   7756 ****        32.0000  20.2500  58.5000 Du        
   7757 ****        32.0000  20.2500  58.7500 Du        
   7758 ****        32.0000  20.2500  59.0000 Du        
   7759 ****        32.0000  20.2500  59.2500 Du        
   7760 ****        32.0000  20.5000  57.7500 Du        
   7761 ****        32.0000  20.5000  58.0000 Du        
   7762 ****        32.0000  20.5000  58.2500 Du        
   7763 ****        32.0000  20.5000  58.5000 Du        
   7764 ****        32.0000  20.5000  58.7500 Du        
   7765 ****        32.0000  20.5000  59.0000 Du        
   7766 ****        32.0000  20.5000  59.2500 Du        
   7767 ****        32.0000  20.7500  57.7500 Du        
   7768 ****        32.0000  20.7500  58.0000 Du        
   7769 ****        32.0000  20.7500  58.2500 Du        
   7770 ****        32.0000  20.7500  58.5000 Du        
   7771 ****        32.0000  20.7500  58.7500 Du        
   7772 ****        32.0000  20.7500  59.0000 Du        
   7773 ****        32.0000  20.7500  59.2500 Du        
   7774 ****        32.0000  21.0000  57.7500 Du        
   7775 ****        32.0000  21.0000  58.0000 Du        
   7776 ****        32.0000  21.0000  58.2500 Du        
   7777 ****        32.0000  21.0000  58.5000 Du        
   7778 ****        32.0000  21.0000  58.7500 Du        
   7779 ****        32.0000  21.0000  59.0000 Du        
   7780 ****        32.0000  21.0000  59.2500 Du        
   7781 ****        32.0000  21.2500  58.0000 Du        
   7782 ****        32.0000  21.2500  58.2500 Du        
   7783 ****        32.0000  21.2500  58.5000 Du        
   7784 ****        32.0000  21.2500  58.7500 Du        
   7785 ****        32.0000  21.2500  59.0000 Du        
   7786 ****        32.0000  21.2500  59.2500 Du        
   7787 ****        32.0000  21.5000  58.2500 Du        
   7788 ****        32.0000  21.5000  58.5000 Du        
   7789 ****        32.0000  21.5000  58.7500 Du        
   7790 ****        32.0000  21.5000  59.0000 Du        
   7791 ****        32.0000  21.5000  59.2500 Du        
   7792 ****        32.0000  21.7500  58.0000 Du        
   7793 ****        32.0000  21.7500  58.2500 Du        
   7794 ****        32.0000  21.7500  58.5000 Du        
   7795 ****        32.0000  21.7500  58.7500 Du        
   7796 ****        32.0000  21.7500  59.0000 Du        
   7797 ****        32.0000  21.7500  59.2500 Du        
   7798 ****        32.0000  22.0000  58.2500 Du        
   7799 ****        32.0000  22.0000  58.5000 Du        
   7800 ****        32.0000  22.0000  58.7500 Du        
   7801 ****        32.0000  22.0000  59.0000 Du        
   7802 ****        32.0000  22.0000  59.2500 Du        
   7803 ****        32.0000  22.2500  58.2500 Du        
   7804 ****        32.0000  22.2500  58.5000 Du        
   7805 ****        32.0000  22.2500  58.7500 Du        
   7806 ****        32.0000  22.2500  59.0000 Du        
   7807 ****        32.0000  22.2500  59.2500 Du        
   7808 ****        32.0000  22.5000  58.2500 Du        
   7809 ****        32.0000  22.5000  58.5000 Du        
   7810 ****        32.0000  22.5000  58.7500 Du        
   7811 ****        32.0000  22.5000  59.0000 Du        
   7812 ****        32.0000  22.5000  59.2500 Du        
   7813 ****        32.0000  22.7500  58.2500 Du        
   7814 ****        32.0000  22.7500  58.5000 Du        
   7815 ****        32.0000  22.7500  58.7500 Du        
   7816 ****        32.0000  22.7500  59.0000 Du        
   7817 ****        32.0000  22.7500  59.2500 Du        
   7818 ****        32.0000  23.0000  58.5000 Du        
   7819 ****        32.0000  23.0000  58.7500 Du        
   7820 ****        32.0000  23.0000  59.0000 Du        
   7821 ****        32.0000  23.0000  59.2500 Du        
   7822 ****        32.0000  23.2500  58.5000 Du        
   7823 ****        32.0000  23.2500  58.7500 Du        
   7824 ****        32.0000  23.2500  59.0000 Du        
   7825 ****        32.0000  23.2500  59.2500 Du        
   7826 ****        32.0000  23.5000  58.7500 Du        
   7827 ****        32.0000  23.5000  59.0000 Du        
   7828 ****        32.0000  23.5000  59.2500 Du        
   7829 ****        32.0000  23.7500  58.7500 Du        
   7830 ****        32.0000  23.7500  59.0000 Du        
   7831 ****        32.0000  23.7500  59.2500 Du        
   7832 ****        32.0000  24.0000  58.7500 Du        
   7833 ****        32.0000  24.0000  59.0000 Du        
   7834 ****        32.0000  24.0000  59.2500 Du        
   7835 ****        32.0000  24.2500  59.0000 Du        
   7836 ****        32.0000  24.2500  59.2500 Du        
   7837 ****        32.0000  30.0000  53.7500 Du        
   7838 ****        32.0000  30.2500  53.7500 Du        
   7839 ****        32.0000  30.7500  54.0000 Du        
   7840 ****        32.0000  31.0000  54.0000 Du        
   7841 ****        32.0000  36.0000  58.2500 Du        
   7842 ****        32.0000  36.0000  58.5000 Du        
   7843 ****        32.0000  36.0000  58.7500 Du        
   7844 ****        32.0000  43.0000  46.0000 Du        
   7845 ****        32.0000  43.0000  46.2500 Du        
   7846 ****        32.0000  43.0000  46.5000 Du        
   7847 ****        32.0000  43.0000  46.7500 Du        
   7848 ****        32.0000  43.2500  46.0000 Du        
   7849 ****        32.0000  43.2500  46.2500 Du        
   7850 ****        32.0000  43.2500  46.5000 Du        
   7851 ****        32.0000  43.2500  46.7500 Du        
   7852 ****        32.0000  43.2500  47.0000 Du        
   7853 ****        32.0000  43.5000  46.0000 Du        
   7854 ****        32.0000  43.5000  46.2500 Du        
   7855 ****        32.0000  43.5000  46.5000 Du        
   7856 ****        32.0000  43.5000  46.7500 Du        
   7857 ****        32.0000  43.7500  46.0000 Du        
   7858 ****        32.0000  43.7500  46.2500 Du        
   7859 ****        32.0000  43.7500  46.5000 Du        
   7860 ****        32.0000  43.7500  46.7500 Du        
   7861 ****        32.0000  43.7500  47.0000 Du        
   7862 ****        32.0000  44.0000  46.0000 Du        
   7863 ****        32.0000  44.0000  46.2500 Du        
   7864 ****        32.0000  44.0000  46.5000 Du        
   7865 ****        32.0000  44.0000  46.7500 Du        
   7866 ****        32.0000  44.0000  47.0000 Du        
   7867 ****        32.0000  44.2500  46.0000 Du        
   7868 ****        32.0000  44.2500  46.2500 Du        
   7869 ****        32.0000  44.2500  46.5000 Du        
   7870 ****        32.0000  44.2500  46.7500 Du        
   7871 ****        32.0000  44.2500  47.0000 Du        
   7872 ****        32.0000  44.5000  46.0000 Du        
   7873 ****        32.0000  44.5000  46.2500 Du        
   7874 ****        32.0000  44.5000  46.5000 Du        
   7875 ****        32.0000  44.5000  46.7500 Du        
   7876 ****        32.0000  44.7500  45.7500 Du        
   7877 ****        32.0000  44.7500  46.0000 Du        
   7878 ****        32.0000  44.7500  46.2500 Du        
   7879 ****        32.0000  44.7500  46.5000 Du        
   7880 ****        32.0000  44.7500  46.7500 Du        
   7881 ****        32.0000  44.7500  47.0000 Du        
   7882 ****        32.0000  45.0000  45.7500 Du        
   7883 ****        32.0000  45.0000  46.0000 Du        
   7884 ****        32.0000  45.0000  46.2500 Du        
   7885 ****        32.0000  45.0000  46.5000 Du        
   7886 ****        32.0000  45.0000  46.7500 Du        
   7887 ****        32.0000  45.0000  47.0000 Du        
   7888 ****        32.0000  45.2500  45.7500 Du        
   7889 ****        32.0000  45.2500  46.0000 Du        
   7890 ****        32.0000  45.2500  46.2500 Du        
   7891 ****        32.0000  45.2500  46.5000 Du        
   7892 ****        32.0000  45.2500  46.7500 Du        
   7893 ****        32.0000  45.2500  47.0000 Du        
   7894 ****        32.0000  45.5000  45.7500 Du        
   7895 ****        32.0000  45.5000  46.0000 Du        
   7896 ****        32.0000  45.5000  46.2500 Du        
   7897 ****        32.0000  45.5000  46.5000 Du        
   7898 ****        32.0000  45.5000  46.7500 Du        
   7899 ****        32.0000  45.7500  46.0000 Du        
   7900 ****        32.0000  45.7500  46.2500 Du        
   7901 ****        32.0000  45.7500  46.5000 Du        
   7902 ****        32.0000  45.7500  46.7500 Du        
   7903 ****        32.2500  15.0000  57.5000 Du        
   7904 ****        32.2500  15.0000  57.7500 Du        
   7905 ****        32.2500  15.2500  57.5000 Du        
   7906 ****        32.2500  15.2500  57.7500 Du        
   7907 ****        32.2500  15.5000  57.5000 Du        
   7908 ****        32.2500  15.5000  57.7500 Du        
   7909 ****        32.2500  15.7500  57.5000 Du        
   7910 ****        32.2500  15.7500  57.7500 Du        
   7911 ****        32.2500  16.0000  57.5000 Du        
   7912 ****        32.2500  16.0000  57.7500 Du        
   7913 ****        32.2500  16.2500  57.5000 Du        
   7914 ****        32.2500  16.2500  57.7500 Du        
   7915 ****        32.2500  16.5000  57.7500 Du        
   7916 ****        32.2500  16.7500  57.7500 Du        
   7917 ****        32.2500  16.7500  58.0000 Du        
   7918 ****        32.2500  17.0000  57.7500 Du        
   7919 ****        32.2500  17.0000  58.0000 Du        
   7920 ****        32.2500  17.2500  57.2500 Du        
   7921 ****        32.2500  17.2500  57.5000 Du        
   7922 ****        32.2500  17.2500  57.7500 Du        
   7923 ****        32.2500  17.2500  58.0000 Du        
   7924 ****        32.2500  17.5000  57.2500 Du        
   7925 ****        32.2500  17.5000  57.5000 Du        
   7926 ****        32.2500  17.5000  57.7500 Du        
   7927 ****        32.2500  17.5000  58.0000 Du        
   7928 ****        32.2500  17.5000  58.2500 Du        
   7929 ****        32.2500  17.7500  57.2500 Du        
   7930 ****        32.2500  17.7500  57.5000 Du        
   7931 ****        32.2500  17.7500  57.7500 Du        
   7932 ****        32.2500  17.7500  58.0000 Du        
   7933 ****        32.2500  17.7500  58.2500 Du        
   7934 ****        32.2500  17.7500  58.5000 Du        
   7935 ****        32.2500  18.0000  57.2500 Du        
   7936 ****        32.2500  18.0000  57.5000 Du        
   7937 ****        32.2500  18.0000  57.7500 Du        
   7938 ****        32.2500  18.0000  58.0000 Du        
   7939 ****        32.2500  18.0000  58.2500 Du        
   7940 ****        32.2500  18.0000  58.5000 Du        
   7941 ****        32.2500  18.2500  57.2500 Du        
   7942 ****        32.2500  18.2500  57.5000 Du        
   7943 ****        32.2500  18.2500  57.7500 Du        
   7944 ****        32.2500  18.2500  58.0000 Du        
   7945 ****        32.2500  18.2500  58.2500 Du        
   7946 ****        32.2500  18.2500  58.5000 Du        
   7947 ****        32.2500  18.2500  58.7500 Du        
   7948 ****        32.2500  18.2500  59.0000 Du        
   7949 ****        32.2500  18.5000  57.2500 Du        
   7950 ****        32.2500  18.5000  57.5000 Du        
   7951 ****        32.2500  18.5000  57.7500 Du        
   7952 ****        32.2500  18.5000  58.0000 Du        
   7953 ****        32.2500  18.5000  58.2500 Du        
   7954 ****        32.2500  18.5000  58.5000 Du        
   7955 ****        32.2500  18.5000  58.7500 Du        
   7956 ****        32.2500  18.5000  59.0000 Du        
   7957 ****        32.2500  18.7500  57.0000 Du        
   7958 ****        32.2500  18.7500  57.2500 Du        
   7959 ****        32.2500  18.7500  57.5000 Du        
   7960 ****        32.2500  18.7500  57.7500 Du        
   7961 ****        32.2500  18.7500  58.0000 Du        
   7962 ****        32.2500  18.7500  58.2500 Du        
   7963 ****        32.2500  18.7500  58.5000 Du        
   7964 ****        32.2500  18.7500  58.7500 Du        
   7965 ****        32.2500  18.7500  59.0000 Du        
   7966 ****        32.2500  18.7500  59.2500 Du        
   7967 ****        32.2500  18.7500  59.5000 Du        
   7968 ****        32.2500  19.0000  57.0000 Du        
   7969 ****        32.2500  19.0000  57.2500 Du        
   7970 ****        32.2500  19.0000  57.5000 Du        
   7971 ****        32.2500  19.0000  57.7500 Du        
   7972 ****        32.2500  19.0000  58.0000 Du        
   7973 ****        32.2500  19.0000  58.2500 Du        
   7974 ****        32.2500  19.0000  58.5000 Du        
   7975 ****        32.2500  19.0000  58.7500 Du        
   7976 ****        32.2500  19.0000  59.0000 Du        
   7977 ****        32.2500  19.0000  59.2500 Du        
   7978 ****        32.2500  19.0000  59.5000 Du        
   7979 ****        32.2500  19.0000  59.7500 Du        
   7980 ****        32.2500  19.2500  57.0000 Du        
   7981 ****        32.2500  19.2500  57.2500 Du        
   7982 ****        32.2500  19.2500  57.5000 Du        
   7983 ****        32.2500  19.2500  57.7500 Du        
   7984 ****        32.2500  19.2500  58.0000 Du        
   7985 ****        32.2500  19.2500  58.2500 Du        
   7986 ****        32.2500  19.2500  58.5000 Du        
   7987 ****        32.2500  19.2500  58.7500 Du        
   7988 ****        32.2500  19.2500  59.0000 Du        
   7989 ****        32.2500  19.2500  59.2500 Du        
   7990 ****        32.2500  19.2500  59.5000 Du        
   7991 ****        32.2500  19.2500  59.7500 Du        
   7992 ****        32.2500  19.5000  57.0000 Du        
   7993 ****        32.2500  19.5000  57.2500 Du        
   7994 ****        32.2500  19.5000  57.5000 Du        
   7995 ****        32.2500  19.5000  57.7500 Du        
   7996 ****        32.2500  19.5000  58.0000 Du        
   7997 ****        32.2500  19.5000  58.2500 Du        
   7998 ****        32.2500  19.5000  58.5000 Du        
   7999 ****        32.2500  19.5000  58.7500 Du        
   8000 ****        32.2500  19.5000  59.0000 Du        
   8001 ****        32.2500  19.5000  59.2500 Du        
   8002 ****        32.2500  19.5000  59.5000 Du        
   8003 ****        32.2500  19.7500  57.2500 Du        
   8004 ****        32.2500  19.7500  57.5000 Du        
   8005 ****        32.2500  19.7500  57.7500 Du        
   8006 ****        32.2500  19.7500  58.0000 Du        
   8007 ****        32.2500  19.7500  58.2500 Du        
   8008 ****        32.2500  19.7500  58.5000 Du        
   8009 ****        32.2500  19.7500  58.7500 Du        
   8010 ****        32.2500  19.7500  59.0000 Du        
   8011 ****        32.2500  19.7500  59.2500 Du        
   8012 ****        32.2500  19.7500  59.5000 Du        
   8013 ****        32.2500  20.0000  57.2500 Du        
   8014 ****        32.2500  20.0000  57.5000 Du        
   8015 ****        32.2500  20.0000  57.7500 Du        
   8016 ****        32.2500  20.0000  58.0000 Du        
   8017 ****        32.2500  20.0000  58.2500 Du        
   8018 ****        32.2500  20.0000  58.5000 Du        
   8019 ****        32.2500  20.0000  58.7500 Du        
   8020 ****        32.2500  20.0000  59.0000 Du        
   8021 ****        32.2500  20.0000  59.2500 Du        
   8022 ****        32.2500  20.2500  57.5000 Du        
   8023 ****        32.2500  20.2500  57.7500 Du        
   8024 ****        32.2500  20.2500  58.0000 Du        
   8025 ****        32.2500  20.2500  58.2500 Du        
   8026 ****        32.2500  20.2500  58.5000 Du        
   8027 ****        32.2500  20.2500  58.7500 Du        
   8028 ****        32.2500  20.2500  59.0000 Du        
   8029 ****        32.2500  20.2500  59.2500 Du        
   8030 ****        32.2500  20.5000  57.7500 Du        
   8031 ****        32.2500  20.5000  58.0000 Du        
   8032 ****        32.2500  20.5000  58.2500 Du        
   8033 ****        32.2500  20.5000  58.5000 Du        
   8034 ****        32.2500  20.5000  58.7500 Du        
   8035 ****        32.2500  20.5000  59.0000 Du        
   8036 ****        32.2500  20.5000  59.2500 Du        
   8037 ****        32.2500  20.7500  57.7500 Du        
   8038 ****        32.2500  20.7500  58.0000 Du        
   8039 ****        32.2500  20.7500  58.2500 Du        
   8040 ****        32.2500  20.7500  58.5000 Du        
   8041 ****        32.2500  20.7500  58.7500 Du        
   8042 ****        32.2500  20.7500  59.0000 Du        
   8043 ****        32.2500  20.7500  59.2500 Du        
   8044 ****        32.2500  21.0000  58.0000 Du        
   8045 ****        32.2500  21.0000  58.2500 Du        
   8046 ****        32.2500  21.0000  58.5000 Du        
   8047 ****        32.2500  21.0000  58.7500 Du        
   8048 ****        32.2500  21.0000  59.0000 Du        
   8049 ****        32.2500  21.0000  59.2500 Du        
   8050 ****        32.2500  21.2500  58.0000 Du        
   8051 ****        32.2500  21.2500  58.2500 Du        
   8052 ****        32.2500  21.2500  58.5000 Du        
   8053 ****        32.2500  21.2500  58.7500 Du        
   8054 ****        32.2500  21.2500  59.0000 Du        
   8055 ****        32.2500  21.2500  59.2500 Du        
   8056 ****        32.2500  21.5000  58.2500 Du        
   8057 ****        32.2500  21.5000  58.5000 Du        
   8058 ****        32.2500  21.5000  58.7500 Du        
   8059 ****        32.2500  21.5000  59.0000 Du        
   8060 ****        32.2500  21.5000  59.2500 Du        
   8061 ****        32.2500  21.7500  58.0000 Du        
   8062 ****        32.2500  21.7500  58.2500 Du        
   8063 ****        32.2500  21.7500  58.5000 Du        
   8064 ****        32.2500  21.7500  58.7500 Du        
   8065 ****        32.2500  21.7500  59.0000 Du        
   8066 ****        32.2500  21.7500  59.2500 Du        
   8067 ****        32.2500  22.0000  58.2500 Du        
   8068 ****        32.2500  22.0000  58.5000 Du        
   8069 ****        32.2500  22.0000  58.7500 Du        
   8070 ****        32.2500  22.0000  59.0000 Du        
   8071 ****        32.2500  22.0000  59.2500 Du        
   8072 ****        32.2500  22.2500  58.2500 Du        
   8073 ****        32.2500  22.2500  58.5000 Du        
   8074 ****        32.2500  22.2500  58.7500 Du        
   8075 ****        32.2500  22.2500  59.0000 Du        
   8076 ****        32.2500  22.2500  59.2500 Du        
   8077 ****        32.2500  22.5000  58.2500 Du        
   8078 ****        32.2500  22.5000  58.5000 Du        
   8079 ****        32.2500  22.5000  58.7500 Du        
   8080 ****        32.2500  22.5000  59.0000 Du        
   8081 ****        32.2500  22.5000  59.2500 Du        
   8082 ****        32.2500  22.7500  58.5000 Du        
   8083 ****        32.2500  22.7500  58.7500 Du        
   8084 ****        32.2500  22.7500  59.0000 Du        
   8085 ****        32.2500  22.7500  59.2500 Du        
   8086 ****        32.2500  23.0000  58.7500 Du        
   8087 ****        32.2500  23.0000  59.0000 Du        
   8088 ****        32.2500  23.0000  59.2500 Du        
   8089 ****        32.2500  23.2500  59.0000 Du        
   8090 ****        32.2500  23.2500  59.2500 Du        
   8091 ****        32.2500  23.5000  59.0000 Du        
   8092 ****        32.2500  30.0000  53.5000 Du        
   8093 ****        32.2500  30.0000  53.7500 Du        
   8094 ****        32.2500  30.0000  54.0000 Du        
   8095 ****        32.2500  30.2500  53.5000 Du        
   8096 ****        32.2500  30.2500  53.7500 Du        
   8097 ****        32.2500  30.2500  54.0000 Du        
   8098 ****        32.2500  30.2500  54.2500 Du        
   8099 ****        32.2500  30.5000  53.7500 Du        
   8100 ****        32.2500  30.5000  54.0000 Du        
   8101 ****        32.2500  30.5000  54.2500 Du        
   8102 ****        32.2500  30.7500  53.7500 Du        
   8103 ****        32.2500  30.7500  54.0000 Du        
   8104 ****        32.2500  30.7500  54.2500 Du        
   8105 ****        32.2500  31.0000  53.7500 Du        
   8106 ****        32.2500  31.0000  54.0000 Du        
   8107 ****        32.2500  31.0000  54.2500 Du        
   8108 ****        32.2500  31.2500  53.7500 Du        
   8109 ****        32.2500  31.2500  54.0000 Du        
   8110 ****        32.2500  31.2500  54.2500 Du        
   8111 ****        32.2500  31.2500  54.5000 Du        
   8112 ****        32.2500  31.5000  54.0000 Du        
   8113 ****        32.2500  31.5000  54.2500 Du        
   8114 ****        32.2500  31.5000  54.5000 Du        
   8115 ****        32.2500  36.0000  58.2500 Du        
   8116 ****        32.2500  36.0000  58.5000 Du        
   8117 ****        32.2500  36.0000  58.7500 Du        
   8118 ****        32.2500  36.0000  59.0000 Du        
   8119 ****        32.2500  36.2500  58.2500 Du        
   8120 ****        32.2500  36.2500  58.5000 Du        
   8121 ****        32.2500  36.2500  58.7500 Du        
   8122 ****        32.2500  36.2500  59.0000 Du        
   8123 ****        32.2500  42.7500  45.7500 Du        
   8124 ****        32.2500  42.7500  46.0000 Du        
   8125 ****        32.2500  42.7500  46.2500 Du        
   8126 ****        32.2500  42.7500  46.5000 Du        
   8127 ****        32.2500  43.0000  45.7500 Du        
   8128 ****        32.2500  43.0000  46.0000 Du        
   8129 ****        32.2500  43.0000  46.2500 Du        
   8130 ****        32.2500  43.0000  46.5000 Du        
   8131 ****        32.2500  43.0000  46.7500 Du        
   8132 ****        32.2500  43.0000  47.0000 Du        
   8133 ****        32.2500  43.2500  45.7500 Du        
   8134 ****        32.2500  43.2500  46.0000 Du        
   8135 ****        32.2500  43.2500  46.2500 Du        
   8136 ****        32.2500  43.2500  46.5000 Du        
   8137 ****        32.2500  43.2500  46.7500 Du        
   8138 ****        32.2500  43.2500  47.0000 Du        
   8139 ****        32.2500  43.5000  45.7500 Du        
   8140 ****        32.2500  43.5000  46.0000 Du        
   8141 ****        32.2500  43.5000  46.2500 Du        
   8142 ****        32.2500  43.5000  46.5000 Du        
   8143 ****        32.2500  43.5000  46.7500 Du        
   8144 ****        32.2500  43.5000  47.0000 Du        
   8145 ****        32.2500  43.7500  45.7500 Du        
   8146 ****        32.2500  43.7500  46.0000 Du        
   8147 ****        32.2500  43.7500  46.2500 Du        
   8148 ****        32.2500  43.7500  46.5000 Du        
   8149 ****        32.2500  43.7500  46.7500 Du        
   8150 ****        32.2500  43.7500  47.0000 Du        
   8151 ****        32.2500  44.0000  45.7500 Du        
   8152 ****        32.2500  44.0000  46.0000 Du        
   8153 ****        32.2500  44.0000  46.2500 Du        
   8154 ****        32.2500  44.0000  46.5000 Du        
   8155 ****        32.2500  44.0000  46.7500 Du        
   8156 ****        32.2500  44.0000  47.0000 Du        
   8157 ****        32.2500  44.2500  45.7500 Du        
   8158 ****        32.2500  44.2500  46.0000 Du        
   8159 ****        32.2500  44.2500  46.2500 Du        
   8160 ****        32.2500  44.2500  46.5000 Du        
   8161 ****        32.2500  44.2500  46.7500 Du        
   8162 ****        32.2500  44.2500  47.0000 Du        
   8163 ****        32.2500  44.5000  45.7500 Du        
   8164 ****        32.2500  44.5000  46.0000 Du        
   8165 ****        32.2500  44.5000  46.2500 Du        
   8166 ****        32.2500  44.5000  46.5000 Du        
   8167 ****        32.2500  44.5000  46.7500 Du        
   8168 ****        32.2500  44.7500  45.7500 Du        
   8169 ****        32.2500  44.7500  46.0000 Du        
   8170 ****        32.2500  44.7500  46.2500 Du        
   8171 ****        32.2500  44.7500  46.5000 Du        
   8172 ****        32.2500  44.7500  46.7500 Du        
   8173 ****        32.2500  44.7500  47.0000 Du        
   8174 ****        32.2500  45.0000  45.7500 Du        
   8175 ****        32.2500  45.0000  46.0000 Du        
   8176 ****        32.2500  45.0000  46.2500 Du        
   8177 ****        32.2500  45.0000  46.5000 Du        
   8178 ****        32.2500  45.0000  46.7500 Du        
   8179 ****        32.2500  45.0000  47.0000 Du        
   8180 ****        32.2500  45.2500  45.2500 Du        
   8181 ****        32.2500  45.2500  45.7500 Du        
   8182 ****        32.2500  45.2500  46.0000 Du        
   8183 ****        32.2500  45.2500  46.2500 Du        
   8184 ****        32.2500  45.2500  46.5000 Du        
   8185 ****        32.2500  45.2500  46.7500 Du        
   8186 ****        32.2500  45.2500  47.0000 Du        
   8187 ****        32.2500  45.5000  45.7500 Du        
   8188 ****        32.2500  45.5000  46.0000 Du        
   8189 ****        32.2500  45.5000  46.2500 Du        
   8190 ****        32.2500  45.7500  46.0000 Du        
   8191 ****        32.2500  45.7500  46.2500 Du        
   8192 ****        32.5000  15.0000  57.2500 Du        
   8193 ****        32.5000  15.0000  57.5000 Du        
   8194 ****        32.5000  15.0000  57.7500 Du        
   8195 ****        32.5000  15.2500  57.5000 Du        
   8196 ****        32.5000  15.2500  57.7500 Du        
   8197 ****        32.5000  16.0000  57.7500 Du        
   8198 ****        32.5000  17.0000  57.7500 Du        
   8199 ****        32.5000  17.2500  57.2500 Du        
   8200 ****        32.5000  17.2500  57.7500 Du        
   8201 ****        32.5000  17.2500  58.0000 Du        
   8202 ****        32.5000  17.5000  57.2500 Du        
   8203 ****        32.5000  17.5000  57.5000 Du        
   8204 ****        32.5000  17.5000  57.7500 Du        
   8205 ****        32.5000  17.5000  58.0000 Du        
   8206 ****        32.5000  17.7500  57.2500 Du        
   8207 ****        32.5000  17.7500  57.5000 Du        
   8208 ****        32.5000  17.7500  57.7500 Du        
   8209 ****        32.5000  17.7500  58.0000 Du        
   8210 ****        32.5000  17.7500  58.2500 Du        
   8211 ****        32.5000  18.0000  57.2500 Du        
   8212 ****        32.5000  18.0000  57.5000 Du        
   8213 ****        32.5000  18.0000  57.7500 Du        
   8214 ****        32.5000  18.0000  58.0000 Du        
   8215 ****        32.5000  18.0000  58.2500 Du        
   8216 ****        32.5000  18.2500  57.2500 Du        
   8217 ****        32.5000  18.2500  57.5000 Du        
   8218 ****        32.5000  18.2500  57.7500 Du        
   8219 ****        32.5000  18.2500  58.0000 Du        
   8220 ****        32.5000  18.2500  58.2500 Du        
   8221 ****        32.5000  18.2500  58.7500 Du        
   8222 ****        32.5000  18.5000  57.2500 Du        
   8223 ****        32.5000  18.5000  57.5000 Du        
   8224 ****        32.5000  18.5000  57.7500 Du        
   8225 ****        32.5000  18.5000  58.0000 Du        
   8226 ****        32.5000  18.5000  58.2500 Du        
   8227 ****        32.5000  18.5000  58.5000 Du        
   8228 ****        32.5000  18.5000  58.7500 Du        
   8229 ****        32.5000  18.5000  59.0000 Du        
   8230 ****        32.5000  18.7500  57.2500 Du        
   8231 ****        32.5000  18.7500  57.5000 Du        
   8232 ****        32.5000  18.7500  57.7500 Du        
   8233 ****        32.5000  18.7500  58.0000 Du        
   8234 ****        32.5000  18.7500  58.2500 Du        
   8235 ****        32.5000  18.7500  58.5000 Du        
   8236 ****        32.5000  18.7500  58.7500 Du        
   8237 ****        32.5000  18.7500  59.0000 Du        
   8238 ****        32.5000  18.7500  59.2500 Du        
   8239 ****        32.5000  19.0000  57.0000 Du        
   8240 ****        32.5000  19.0000  57.2500 Du        
   8241 ****        32.5000  19.0000  57.5000 Du        
   8242 ****        32.5000  19.0000  57.7500 Du        
   8243 ****        32.5000  19.0000  58.0000 Du        
   8244 ****        32.5000  19.0000  58.2500 Du        
   8245 ****        32.5000  19.0000  58.5000 Du        
   8246 ****        32.5000  19.0000  58.7500 Du        
   8247 ****        32.5000  19.0000  59.0000 Du        
   8248 ****        32.5000  19.0000  59.2500 Du        
   8249 ****        32.5000  19.2500  57.2500 Du        
   8250 ****        32.5000  19.2500  57.5000 Du        
   8251 ****        32.5000  19.2500  57.7500 Du        
   8252 ****        32.5000  19.2500  58.0000 Du        
   8253 ****        32.5000  19.2500  58.2500 Du        
   8254 ****        32.5000  19.2500  58.5000 Du        
   8255 ****        32.5000  19.2500  58.7500 Du        
   8256 ****        32.5000  19.2500  59.0000 Du        
   8257 ****        32.5000  19.2500  59.2500 Du        
   8258 ****        32.5000  19.5000  57.2500 Du        
   8259 ****        32.5000  19.5000  57.5000 Du        
   8260 ****        32.5000  19.5000  57.7500 Du        
   8261 ****        32.5000  19.5000  58.0000 Du        
   8262 ****        32.5000  19.5000  58.2500 Du        
   8263 ****        32.5000  19.5000  58.5000 Du        
   8264 ****        32.5000  19.5000  58.7500 Du        
   8265 ****        32.5000  19.5000  59.0000 Du        
   8266 ****        32.5000  19.5000  59.2500 Du        
   8267 ****        32.5000  19.7500  57.2500 Du        
   8268 ****        32.5000  19.7500  57.5000 Du        
   8269 ****        32.5000  19.7500  57.7500 Du        
   8270 ****        32.5000  19.7500  58.0000 Du        
   8271 ****        32.5000  19.7500  58.2500 Du        
   8272 ****        32.5000  19.7500  58.5000 Du        
   8273 ****        32.5000  19.7500  58.7500 Du        
   8274 ****        32.5000  19.7500  59.0000 Du        
   8275 ****        32.5000  19.7500  59.2500 Du        
   8276 ****        32.5000  20.0000  57.5000 Du        
   8277 ****        32.5000  20.0000  57.7500 Du        
   8278 ****        32.5000  20.0000  58.0000 Du        
   8279 ****        32.5000  20.0000  58.2500 Du        
   8280 ****        32.5000  20.0000  58.5000 Du        
   8281 ****        32.5000  20.0000  58.7500 Du        
   8282 ****        32.5000  20.0000  59.0000 Du        
   8283 ****        32.5000  20.0000  59.2500 Du        
   8284 ****        32.5000  20.2500  57.7500 Du        
   8285 ****        32.5000  20.2500  58.0000 Du        
   8286 ****        32.5000  20.2500  58.2500 Du        
   8287 ****        32.5000  20.2500  58.5000 Du        
   8288 ****        32.5000  20.2500  58.7500 Du        
   8289 ****        32.5000  20.2500  59.0000 Du        
   8290 ****        32.5000  20.2500  59.2500 Du        
   8291 ****        32.5000  20.5000  58.0000 Du        
   8292 ****        32.5000  20.5000  58.2500 Du        
   8293 ****        32.5000  20.5000  58.5000 Du        
   8294 ****        32.5000  20.5000  58.7500 Du        
   8295 ****        32.5000  20.5000  59.0000 Du        
   8296 ****        32.5000  20.7500  58.0000 Du        
   8297 ****        32.5000  20.7500  58.2500 Du        
   8298 ****        32.5000  20.7500  58.5000 Du        
   8299 ****        32.5000  20.7500  58.7500 Du        
   8300 ****        32.5000  20.7500  59.0000 Du        
   8301 ****        32.5000  21.0000  58.0000 Du        
   8302 ****        32.5000  21.0000  58.2500 Du        
   8303 ****        32.5000  21.0000  58.5000 Du        
   8304 ****        32.5000  21.0000  58.7500 Du        
   8305 ****        32.5000  21.0000  59.0000 Du        
   8306 ****        32.5000  21.2500  58.2500 Du        
   8307 ****        32.5000  21.2500  58.5000 Du        
   8308 ****        32.5000  21.2500  58.7500 Du        
   8309 ****        32.5000  21.2500  59.0000 Du        
   8310 ****        32.5000  21.5000  58.5000 Du        
   8311 ****        32.5000  21.5000  58.7500 Du        
   8312 ****        32.5000  21.7500  58.5000 Du        
   8313 ****        32.5000  21.7500  58.7500 Du        
   8314 ****        32.5000  21.7500  59.0000 Du        
   8315 ****        32.5000  22.0000  58.5000 Du        
   8316 ****        32.5000  22.0000  58.7500 Du        
   8317 ****        32.5000  22.0000  59.0000 Du        
   8318 ****        32.5000  22.2500  58.7500 Du        
   8319 ****        32.5000  30.0000  53.5000 Du        
   8320 ****        32.5000  30.0000  53.7500 Du        
   8321 ****        32.5000  30.0000  54.0000 Du        
   8322 ****        32.5000  30.2500  53.5000 Du        
   8323 ****        32.5000  30.2500  53.7500 Du        
   8324 ****        32.5000  30.2500  54.0000 Du        
   8325 ****        32.5000  30.2500  54.2500 Du        
   8326 ****        32.5000  30.5000  53.5000 Du        
   8327 ****        32.5000  30.5000  53.7500 Du        
   8328 ****        32.5000  30.5000  54.0000 Du        
   8329 ****        32.5000  30.5000  54.2500 Du        
   8330 ****        32.5000  30.5000  54.5000 Du        
   8331 ****        32.5000  30.7500  53.7500 Du        
   8332 ****        32.5000  30.7500  54.0000 Du        
   8333 ****        32.5000  30.7500  54.2500 Du        
   8334 ****        32.5000  30.7500  54.5000 Du        
   8335 ****        32.5000  31.0000  53.7500 Du        
   8336 ****        32.5000  31.0000  54.0000 Du        
   8337 ****        32.5000  31.0000  54.2500 Du        
   8338 ****        32.5000  31.0000  54.5000 Du        
   8339 ****        32.5000  31.0000  54.7500 Du        
   8340 ****        32.5000  31.2500  53.7500 Du        
   8341 ****        32.5000  31.2500  54.0000 Du        
   8342 ****        32.5000  31.2500  54.2500 Du        
   8343 ****        32.5000  31.2500  54.5000 Du        
   8344 ****        32.5000  31.2500  54.7500 Du        
   8345 ****        32.5000  31.5000  54.0000 Du        
   8346 ****        32.5000  31.5000  54.2500 Du        
   8347 ****        32.5000  31.5000  54.5000 Du        
   8348 ****        32.5000  31.5000  54.7500 Du        
   8349 ****        32.5000  31.5000  55.0000 Du        
   8350 ****        32.5000  31.7500  54.5000 Du        
   8351 ****        32.5000  31.7500  54.7500 Du        
   8352 ****        32.5000  36.0000  58.2500 Du        
   8353 ****        32.5000  36.0000  58.5000 Du        
   8354 ****        32.5000  36.0000  58.7500 Du        
   8355 ****        32.5000  36.0000  59.0000 Du        
   8356 ****        32.5000  36.0000  59.2500 Du        
   8357 ****        32.5000  36.2500  58.2500 Du        
   8358 ****        32.5000  36.2500  58.5000 Du        
   8359 ****        32.5000  36.2500  58.7500 Du        
   8360 ****        32.5000  36.2500  59.0000 Du        
   8361 ****        32.5000  36.5000  58.7500 Du        
   8362 ****        32.5000  42.7500  45.5000 Du        
   8363 ****        32.5000  42.7500  45.7500 Du        
   8364 ****        32.5000  42.7500  46.0000 Du        
   8365 ****        32.5000  42.7500  46.2500 Du        
   8366 ****        32.5000  42.7500  46.5000 Du        
   8367 ****        32.5000  43.0000  45.5000 Du        
   8368 ****        32.5000  43.0000  45.7500 Du        
   8369 ****        32.5000  43.0000  46.0000 Du        
   8370 ****        32.5000  43.0000  46.2500 Du        
   8371 ****        32.5000  43.0000  46.5000 Du        
   8372 ****        32.5000  43.0000  46.7500 Du        
   8373 ****        32.5000  43.0000  47.0000 Du        
   8374 ****        32.5000  43.2500  45.5000 Du        
   8375 ****        32.5000  43.2500  45.7500 Du        
   8376 ****        32.5000  43.2500  46.0000 Du        
   8377 ****        32.5000  43.2500  46.2500 Du        
   8378 ****        32.5000  43.2500  46.5000 Du        
   8379 ****        32.5000  43.2500  46.7500 Du        
   8380 ****        32.5000  43.2500  47.0000 Du        
   8381 ****        32.5000  43.5000  45.5000 Du        
   8382 ****        32.5000  43.5000  45.7500 Du        
   8383 ****        32.5000  43.5000  46.0000 Du        
   8384 ****        32.5000  43.5000  46.2500 Du        
   8385 ****        32.5000  43.5000  46.5000 Du        
   8386 ****        32.5000  43.5000  46.7500 Du        
   8387 ****        32.5000  43.5000  47.0000 Du        
   8388 ****        32.5000  43.7500  45.5000 Du        
   8389 ****        32.5000  43.7500  45.7500 Du        
   8390 ****        32.5000  43.7500  46.0000 Du        
   8391 ****        32.5000  43.7500  46.2500 Du        
   8392 ****        32.5000  43.7500  46.5000 Du        
   8393 ****        32.5000  43.7500  46.7500 Du        
   8394 ****        32.5000  43.7500  47.0000 Du        
   8395 ****        32.5000  44.0000  45.5000 Du        
   8396 ****        32.5000  44.0000  45.7500 Du        
   8397 ****        32.5000  44.0000  46.0000 Du        
   8398 ****        32.5000  44.0000  46.2500 Du        
   8399 ****        32.5000  44.0000  46.5000 Du        
   8400 ****        32.5000  44.0000  46.7500 Du        
   8401 ****        32.5000  44.0000  47.0000 Du        
   8402 ****        32.5000  44.2500  45.2500 Du        
   8403 ****        32.5000  44.2500  45.5000 Du        
   8404 ****        32.5000  44.2500  45.7500 Du        
   8405 ****        32.5000  44.2500  46.0000 Du        
   8406 ****        32.5000  44.2500  46.2500 Du        
   8407 ****        32.5000  44.2500  46.5000 Du        
   8408 ****        32.5000  44.2500  46.7500 Du        
   8409 ****        32.5000  44.2500  47.0000 Du        
   8410 ****        32.5000  44.5000  45.2500 Du        
   8411 ****        32.5000  44.5000  45.7500 Du        
   8412 ****        32.5000  44.5000  46.0000 Du        
   8413 ****        32.5000  44.5000  46.2500 Du        
   8414 ****        32.5000  44.5000  46.5000 Du        
   8415 ****        32.5000  44.5000  46.7500 Du        
   8416 ****        32.5000  44.7500  45.2500 Du        
   8417 ****        32.5000  44.7500  45.5000 Du        
   8418 ****        32.5000  44.7500  45.7500 Du        
   8419 ****        32.5000  44.7500  46.0000 Du        
   8420 ****        32.5000  44.7500  46.2500 Du        
   8421 ****        32.5000  44.7500  46.5000 Du        
   8422 ****        32.5000  45.0000  45.0000 Du        
   8423 ****        32.5000  45.0000  45.2500 Du        
   8424 ****        32.5000  45.0000  45.5000 Du        
   8425 ****        32.5000  45.0000  45.7500 Du        
   8426 ****        32.5000  45.0000  46.0000 Du        
   8427 ****        32.5000  45.0000  46.2500 Du        
   8428 ****        32.5000  45.0000  46.5000 Du        
   8429 ****        32.5000  45.2500  44.5000 Du        
   8430 ****        32.5000  45.2500  44.7500 Du        
   8431 ****        32.5000  45.2500  45.0000 Du        
   8432 ****        32.5000  45.2500  45.2500 Du        
   8433 ****        32.5000  45.2500  45.5000 Du        
   8434 ****        32.5000  45.2500  45.7500 Du        
   8435 ****        32.7500  15.0000  57.2500 Du        
   8436 ****        32.7500  15.0000  57.5000 Du        
   8437 ****        32.7500  15.0000  57.7500 Du        
   8438 ****        32.7500  15.2500  57.2500 Du        
   8439 ****        32.7500  15.2500  57.5000 Du        
   8440 ****        32.7500  15.2500  57.7500 Du        
   8441 ****        32.7500  15.5000  57.5000 Du        
   8442 ****        32.7500  15.5000  57.7500 Du        
   8443 ****        32.7500  15.7500  57.5000 Du        
   8444 ****        32.7500  15.7500  57.7500 Du        
   8445 ****        32.7500  16.0000  57.5000 Du        
   8446 ****        32.7500  16.0000  57.7500 Du        
   8447 ****        32.7500  16.2500  57.5000 Du        
   8448 ****        32.7500  16.2500  57.7500 Du        
   8449 ****        32.7500  16.5000  57.5000 Du        
   8450 ****        32.7500  16.5000  57.7500 Du        
   8451 ****        32.7500  16.7500  57.2500 Du        
   8452 ****        32.7500  16.7500  57.5000 Du        
   8453 ****        32.7500  16.7500  57.7500 Du        
   8454 ****        32.7500  16.7500  58.0000 Du        
   8455 ****        32.7500  17.0000  57.2500 Du        
   8456 ****        32.7500  17.0000  57.5000 Du        
   8457 ****        32.7500  17.0000  57.7500 Du        
   8458 ****        32.7500  17.0000  58.0000 Du        
   8459 ****        32.7500  17.2500  57.2500 Du        
   8460 ****        32.7500  17.2500  57.5000 Du        
   8461 ****        32.7500  17.2500  57.7500 Du        
   8462 ****        32.7500  17.2500  58.0000 Du        
   8463 ****        32.7500  17.5000  57.2500 Du        
   8464 ****        32.7500  17.5000  57.5000 Du        
   8465 ****        32.7500  17.5000  57.7500 Du        
   8466 ****        32.7500  17.5000  58.0000 Du        
   8467 ****        32.7500  17.7500  57.2500 Du        
   8468 ****        32.7500  17.7500  57.5000 Du        
   8469 ****        32.7500  17.7500  57.7500 Du        
   8470 ****        32.7500  17.7500  58.0000 Du        
   8471 ****        32.7500  17.7500  58.2500 Du        
   8472 ****        32.7500  18.0000  57.2500 Du        
   8473 ****        32.7500  18.0000  57.5000 Du        
   8474 ****        32.7500  18.0000  57.7500 Du        
   8475 ****        32.7500  18.0000  58.0000 Du        
   8476 ****        32.7500  18.0000  58.2500 Du        
   8477 ****        32.7500  18.0000  58.5000 Du        
   8478 ****        32.7500  18.2500  57.2500 Du        
   8479 ****        32.7500  18.2500  57.5000 Du        
   8480 ****        32.7500  18.2500  57.7500 Du        
   8481 ****        32.7500  18.2500  58.0000 Du        
   8482 ****        32.7500  18.2500  58.2500 Du        
   8483 ****        32.7500  18.2500  58.5000 Du        
   8484 ****        32.7500  18.2500  58.7500 Du        
   8485 ****        32.7500  18.2500  59.0000 Du        
   8486 ****        32.7500  18.5000  57.2500 Du        
   8487 ****        32.7500  18.5000  57.5000 Du        
   8488 ****        32.7500  18.5000  57.7500 Du        
   8489 ****        32.7500  18.5000  58.0000 Du        
   8490 ****        32.7500  18.5000  58.2500 Du        
   8491 ****        32.7500  18.5000  58.5000 Du        
   8492 ****        32.7500  18.5000  58.7500 Du        
   8493 ****        32.7500  18.5000  59.0000 Du        
   8494 ****        32.7500  18.7500  57.0000 Du        
   8495 ****        32.7500  18.7500  57.2500 Du        
   8496 ****        32.7500  18.7500  57.5000 Du        
   8497 ****        32.7500  18.7500  57.7500 Du        
   8498 ****        32.7500  18.7500  58.0000 Du        
   8499 ****        32.7500  18.7500  58.2500 Du        
   8500 ****        32.7500  18.7500  58.5000 Du        
   8501 ****        32.7500  18.7500  58.7500 Du        
   8502 ****        32.7500  18.7500  59.0000 Du        
   8503 ****        32.7500  18.7500  59.2500 Du        
   8504 ****        32.7500  19.0000  57.0000 Du        
   8505 ****        32.7500  19.0000  57.2500 Du        
   8506 ****        32.7500  19.0000  57.5000 Du        
   8507 ****        32.7500  19.0000  57.7500 Du        
   8508 ****        32.7500  19.0000  58.0000 Du        
   8509 ****        32.7500  19.0000  58.2500 Du        
   8510 ****        32.7500  19.0000  58.5000 Du        
   8511 ****        32.7500  19.0000  58.7500 Du        
   8512 ****        32.7500  19.0000  59.0000 Du        
   8513 ****        32.7500  19.0000  59.2500 Du        
   8514 ****        32.7500  19.0000  59.5000 Du        
   8515 ****        32.7500  19.2500  57.2500 Du        
   8516 ****        32.7500  19.2500  57.5000 Du        
   8517 ****        32.7500  19.2500  57.7500 Du        
   8518 ****        32.7500  19.2500  58.0000 Du        
   8519 ****        32.7500  19.2500  58.2500 Du        
   8520 ****        32.7500  19.2500  58.5000 Du        
   8521 ****        32.7500  19.2500  58.7500 Du        
   8522 ****        32.7500  19.2500  59.0000 Du        
   8523 ****        32.7500  19.2500  59.2500 Du        
   8524 ****        32.7500  19.2500  59.7500 Du        
   8525 ****        32.7500  19.5000  57.2500 Du        
   8526 ****        32.7500  19.5000  57.5000 Du        
   8527 ****        32.7500  19.5000  57.7500 Du        
   8528 ****        32.7500  19.5000  58.0000 Du        
   8529 ****        32.7500  19.5000  58.2500 Du        
   8530 ****        32.7500  19.5000  58.5000 Du        
   8531 ****        32.7500  19.5000  58.7500 Du        
   8532 ****        32.7500  19.5000  59.0000 Du        
   8533 ****        32.7500  19.5000  59.2500 Du        
   8534 ****        32.7500  19.5000  59.5000 Du        
   8535 ****        32.7500  19.7500  57.2500 Du        
   8536 ****        32.7500  19.7500  57.5000 Du        
   8537 ****        32.7500  19.7500  57.7500 Du        
   8538 ****        32.7500  19.7500  58.0000 Du        
   8539 ****        32.7500  19.7500  58.2500 Du        
   8540 ****        32.7500  19.7500  58.5000 Du        
   8541 ****        32.7500  19.7500  58.7500 Du        
   8542 ****        32.7500  19.7500  59.0000 Du        
   8543 ****        32.7500  19.7500  59.2500 Du        
   8544 ****        32.7500  20.0000  57.5000 Du        
   8545 ****        32.7500  20.0000  57.7500 Du        
   8546 ****        32.7500  20.0000  58.0000 Du        
   8547 ****        32.7500  20.0000  58.2500 Du        
   8548 ****        32.7500  20.0000  58.5000 Du        
   8549 ****        32.7500  20.0000  58.7500 Du        
   8550 ****        32.7500  20.0000  59.0000 Du        
   8551 ****        32.7500  20.0000  59.2500 Du        
   8552 ****        32.7500  20.2500  57.7500 Du        
   8553 ****        32.7500  20.2500  58.0000 Du        
   8554 ****        32.7500  20.2500  58.2500 Du        
   8555 ****        32.7500  20.2500  58.5000 Du        
   8556 ****        32.7500  20.2500  58.7500 Du        
   8557 ****        32.7500  20.2500  59.0000 Du        
   8558 ****        32.7500  20.2500  59.2500 Du        
   8559 ****        32.7500  20.5000  58.0000 Du        
   8560 ****        32.7500  20.5000  58.2500 Du        
   8561 ****        32.7500  20.5000  58.5000 Du        
   8562 ****        32.7500  20.5000  58.7500 Du        
   8563 ****        32.7500  20.5000  59.0000 Du        
   8564 ****        32.7500  20.5000  59.2500 Du        
   8565 ****        32.7500  20.7500  58.0000 Du        
   8566 ****        32.7500  20.7500  58.2500 Du        
   8567 ****        32.7500  20.7500  58.5000 Du        
   8568 ****        32.7500  20.7500  58.7500 Du        
   8569 ****        32.7500  20.7500  59.0000 Du        
   8570 ****        32.7500  20.7500  59.2500 Du        
   8571 ****        32.7500  21.0000  58.0000 Du        
   8572 ****        32.7500  21.0000  58.2500 Du        
   8573 ****        32.7500  21.0000  58.5000 Du        
   8574 ****        32.7500  21.0000  58.7500 Du        
   8575 ****        32.7500  21.0000  59.0000 Du        
   8576 ****        32.7500  21.0000  59.2500 Du        
   8577 ****        32.7500  21.2500  58.2500 Du        
   8578 ****        32.7500  21.2500  58.5000 Du        
   8579 ****        32.7500  21.2500  58.7500 Du        
   8580 ****        32.7500  21.2500  59.0000 Du        
   8581 ****        32.7500  21.2500  59.2500 Du        
   8582 ****        32.7500  21.5000  58.2500 Du        
   8583 ****        32.7500  21.5000  58.5000 Du        
   8584 ****        32.7500  21.5000  58.7500 Du        
   8585 ****        32.7500  21.5000  59.0000 Du        
   8586 ****        32.7500  21.7500  58.5000 Du        
   8587 ****        32.7500  21.7500  58.7500 Du        
   8588 ****        32.7500  22.0000  58.5000 Du        
   8589 ****        32.7500  22.0000  58.7500 Du        
   8590 ****        32.7500  22.0000  59.0000 Du        
   8591 ****        32.7500  22.2500  58.7500 Du        
   8592 ****        32.7500  22.2500  59.0000 Du        
   8593 ****        32.7500  30.0000  53.5000 Du        
   8594 ****        32.7500  30.0000  53.7500 Du        
   8595 ****        32.7500  30.2500  53.5000 Du        
   8596 ****        32.7500  30.2500  53.7500 Du        
   8597 ****        32.7500  30.2500  54.0000 Du        
   8598 ****        32.7500  30.2500  54.2500 Du        
   8599 ****        32.7500  30.5000  53.5000 Du        
   8600 ****        32.7500  30.5000  53.7500 Du        
   8601 ****        32.7500  30.5000  54.0000 Du        
   8602 ****        32.7500  30.5000  54.2500 Du        
   8603 ****        32.7500  30.5000  54.5000 Du        
   8604 ****        32.7500  30.7500  53.5000 Du        
   8605 ****        32.7500  30.7500  53.7500 Du        
   8606 ****        32.7500  30.7500  54.0000 Du        
   8607 ****        32.7500  30.7500  54.2500 Du        
   8608 ****        32.7500  30.7500  54.5000 Du        
   8609 ****        32.7500  30.7500  54.7500 Du        
   8610 ****        32.7500  30.7500  55.0000 Du        
   8611 ****        32.7500  31.0000  53.5000 Du        
   8612 ****        32.7500  31.0000  53.7500 Du        
   8613 ****        32.7500  31.0000  54.0000 Du        
   8614 ****        32.7500  31.0000  54.2500 Du        
   8615 ****        32.7500  31.0000  54.5000 Du        
   8616 ****        32.7500  31.0000  54.7500 Du        
   8617 ****        32.7500  31.0000  55.0000 Du        
   8618 ****        32.7500  31.0000  55.2500 Du        
   8619 ****        32.7500  31.2500  53.5000 Du        
   8620 ****        32.7500  31.2500  53.7500 Du        
   8621 ****        32.7500  31.2500  54.0000 Du        
   8622 ****        32.7500  31.2500  54.2500 Du        
   8623 ****        32.7500  31.2500  54.5000 Du        
   8624 ****        32.7500  31.2500  54.7500 Du        
   8625 ****        32.7500  31.2500  55.0000 Du        
   8626 ****        32.7500  31.2500  55.2500 Du        
   8627 ****        32.7500  31.5000  53.7500 Du        
   8628 ****        32.7500  31.5000  54.0000 Du        
   8629 ****        32.7500  31.5000  54.2500 Du        
   8630 ****        32.7500  31.5000  54.5000 Du        
   8631 ****        32.7500  31.5000  54.7500 Du        
   8632 ****        32.7500  31.5000  55.0000 Du        
   8633 ****        32.7500  31.5000  55.2500 Du        
   8634 ****        32.7500  31.7500  53.7500 Du        
   8635 ****        32.7500  31.7500  54.0000 Du        
   8636 ****        32.7500  31.7500  54.2500 Du        
   8637 ****        32.7500  31.7500  54.5000 Du        
   8638 ****        32.7500  31.7500  54.7500 Du        
   8639 ****        32.7500  31.7500  55.0000 Du        
   8640 ****        32.7500  31.7500  55.2500 Du        
   8641 ****        32.7500  31.7500  55.5000 Du        
   8642 ****        32.7500  31.7500  55.7500 Du        
   8643 ****        32.7500  36.0000  58.2500 Du        
   8644 ****        32.7500  36.0000  58.5000 Du        
   8645 ****        32.7500  36.0000  58.7500 Du        
   8646 ****        32.7500  36.0000  59.0000 Du        
   8647 ****        32.7500  36.0000  59.2500 Du        
   8648 ****        32.7500  36.2500  58.2500 Du        
   8649 ****        32.7500  36.2500  58.5000 Du        
   8650 ****        32.7500  36.2500  58.7500 Du        
   8651 ****        32.7500  36.2500  59.0000 Du        
   8652 ****        32.7500  36.2500  59.2500 Du        
   8653 ****        32.7500  36.5000  58.5000 Du        
   8654 ****        32.7500  36.5000  58.7500 Du        
   8655 ****        32.7500  36.5000  59.0000 Du        
   8656 ****        32.7500  36.7500  58.7500 Du        
   8657 ****        32.7500  36.7500  59.0000 Du        
   8658 ****        32.7500  42.7500  45.2500 Du        
   8659 ****        32.7500  42.7500  45.5000 Du        
   8660 ****        32.7500  42.7500  45.7500 Du        
   8661 ****        32.7500  42.7500  46.0000 Du        
   8662 ****        32.7500  42.7500  46.2500 Du        
   8663 ****        32.7500  42.7500  46.5000 Du        
   8664 ****        32.7500  42.7500  46.7500 Du        
   8665 ****        32.7500  42.7500  47.0000 Du        
   8666 ****        32.7500  43.0000  45.0000 Du        
   8667 ****        32.7500  43.0000  45.2500 Du        
   8668 ****        32.7500  43.0000  45.5000 Du        
   8669 ****        32.7500  43.0000  45.7500 Du        
   8670 ****        32.7500  43.0000  46.0000 Du        
   8671 ****        32.7500  43.0000  46.2500 Du        
   8672 ****        32.7500  43.0000  46.5000 Du        
   8673 ****        32.7500  43.0000  46.7500 Du        
   8674 ****        32.7500  43.0000  47.0000 Du        
   8675 ****        32.7500  43.0000  47.2500 Du        
   8676 ****        32.7500  43.2500  45.0000 Du        
   8677 ****        32.7500  43.2500  45.2500 Du        
   8678 ****        32.7500  43.2500  45.5000 Du        
   8679 ****        32.7500  43.2500  45.7500 Du        
   8680 ****        32.7500  43.2500  46.0000 Du        
   8681 ****        32.7500  43.2500  46.2500 Du        
   8682 ****        32.7500  43.2500  46.5000 Du        
   8683 ****        32.7500  43.2500  46.7500 Du        
   8684 ****        32.7500  43.2500  47.0000 Du        
   8685 ****        32.7500  43.2500  47.2500 Du        
   8686 ****        32.7500  43.5000  45.0000 Du        
   8687 ****        32.7500  43.5000  45.2500 Du        
   8688 ****        32.7500  43.5000  45.5000 Du        
   8689 ****        32.7500  43.5000  45.7500 Du        
   8690 ****        32.7500  43.5000  46.0000 Du        
   8691 ****        32.7500  43.5000  46.2500 Du        
   8692 ****        32.7500  43.5000  46.5000 Du        
   8693 ****        32.7500  43.5000  46.7500 Du        
   8694 ****        32.7500  43.5000  47.0000 Du        
   8695 ****        32.7500  43.7500  45.0000 Du        
   8696 ****        32.7500  43.7500  45.2500 Du        
   8697 ****        32.7500  43.7500  45.5000 Du        
   8698 ****        32.7500  43.7500  45.7500 Du        
   8699 ****        32.7500  43.7500  46.0000 Du        
   8700 ****        32.7500  43.7500  46.2500 Du        
   8701 ****        32.7500  43.7500  46.5000 Du        
   8702 ****        32.7500  43.7500  46.7500 Du        
   8703 ****        32.7500  43.7500  47.0000 Du        
   8704 ****        32.7500  44.0000  45.0000 Du        
   8705 ****        32.7500  44.0000  45.2500 Du        
   8706 ****        32.7500  44.0000  45.5000 Du        
   8707 ****        32.7500  44.0000  45.7500 Du        
   8708 ****        32.7500  44.0000  46.0000 Du        
   8709 ****        32.7500  44.0000  46.2500 Du        
   8710 ****        32.7500  44.0000  46.5000 Du        
   8711 ****        32.7500  44.0000  46.7500 Du        
   8712 ****        32.7500  44.0000  47.0000 Du        
   8713 ****        32.7500  44.2500  44.7500 Du        
   8714 ****        32.7500  44.2500  45.0000 Du        
   8715 ****        32.7500  44.2500  45.2500 Du        
   8716 ****        32.7500  44.2500  45.5000 Du        
   8717 ****        32.7500  44.2500  45.7500 Du        
   8718 ****        32.7500  44.2500  46.0000 Du        
   8719 ****        32.7500  44.2500  46.2500 Du        
   8720 ****        32.7500  44.2500  46.5000 Du        
   8721 ****        32.7500  44.2500  46.7500 Du        
   8722 ****        32.7500  44.2500  47.0000 Du        
   8723 ****        32.7500  44.5000  45.0000 Du        
   8724 ****        32.7500  44.5000  45.2500 Du        
   8725 ****        32.7500  44.5000  45.5000 Du        
   8726 ****        32.7500  44.5000  45.7500 Du        
   8727 ****        32.7500  44.5000  46.0000 Du        
   8728 ****        32.7500  44.5000  46.2500 Du        
   8729 ****        32.7500  44.5000  46.5000 Du        
   8730 ****        32.7500  44.5000  46.7500 Du        
   8731 ****        32.7500  44.7500  44.5000 Du        
   8732 ****        32.7500  44.7500  44.7500 Du        
   8733 ****        32.7500  44.7500  45.0000 Du        
   8734 ****        32.7500  44.7500  45.2500 Du        
   8735 ****        32.7500  44.7500  45.5000 Du        
   8736 ****        32.7500  44.7500  45.7500 Du        
   8737 ****        32.7500  44.7500  46.0000 Du        
   8738 ****        32.7500  44.7500  46.2500 Du        
   8739 ****        32.7500  44.7500  46.5000 Du        
   8740 ****        32.7500  44.7500  46.7500 Du        
   8741 ****        32.7500  45.0000  44.5000 Du        
   8742 ****        32.7500  45.0000  44.7500 Du        
   8743 ****        32.7500  45.0000  45.0000 Du        
   8744 ****        32.7500  45.0000  45.2500 Du        
   8745 ****        32.7500  45.0000  45.5000 Du        
   8746 ****        32.7500  45.0000  45.7500 Du        
   8747 ****        32.7500  45.0000  46.0000 Du        
   8748 ****        32.7500  45.0000  46.2500 Du        
   8749 ****        32.7500  45.2500  44.5000 Du        
   8750 ****        32.7500  45.2500  44.7500 Du        
   8751 ****        32.7500  45.2500  45.0000 Du        
   8752 ****        32.7500  45.2500  45.2500 Du        
   8753 ****        32.7500  45.2500  45.5000 Du        
   8754 ****        32.7500  45.2500  45.7500 Du        
   8755 ****        32.7500  45.2500  46.0000 Du        
   8756 ****        33.0000  15.0000  57.0000 Du        
   8757 ****        33.0000  15.0000  57.2500 Du        
   8758 ****        33.0000  15.0000  57.5000 Du        
   8759 ****        33.0000  15.0000  57.7500 Du        
   8760 ****        33.0000  15.2500  57.2500 Du        
   8761 ****        33.0000  15.2500  57.5000 Du        
   8762 ****        33.0000  15.2500  57.7500 Du        
   8763 ****        33.0000  15.5000  57.5000 Du        
   8764 ****        33.0000  15.5000  57.7500 Du        
   8765 ****        33.0000  15.7500  57.2500 Du        
   8766 ****        33.0000  15.7500  57.5000 Du        
   8767 ****        33.0000  15.7500  57.7500 Du        
   8768 ****        33.0000  16.0000  57.5000 Du        
   8769 ****        33.0000  16.0000  57.7500 Du        
   8770 ****        33.0000  16.2500  57.5000 Du        
   8771 ****        33.0000  16.2500  57.7500 Du        
   8772 ****        33.0000  16.2500  58.0000 Du        
   8773 ****        33.0000  16.5000  57.5000 Du        
   8774 ****        33.0000  16.5000  57.7500 Du        
   8775 ****        33.0000  16.7500  57.5000 Du        
   8776 ****        33.0000  16.7500  57.7500 Du        
   8777 ****        33.0000  16.7500  58.0000 Du        
   8778 ****        33.0000  17.0000  57.2500 Du        
   8779 ****        33.0000  17.0000  57.5000 Du        
   8780 ****        33.0000  17.0000  57.7500 Du        
   8781 ****        33.0000  17.0000  58.0000 Du        
   8782 ****        33.0000  17.2500  57.2500 Du        
   8783 ****        33.0000  17.2500  57.5000 Du        
   8784 ****        33.0000  17.2500  57.7500 Du        
   8785 ****        33.0000  17.2500  58.0000 Du        
   8786 ****        33.0000  17.2500  58.2500 Du        
   8787 ****        33.0000  17.5000  57.2500 Du        
   8788 ****        33.0000  17.5000  57.5000 Du        
   8789 ****        33.0000  17.5000  57.7500 Du        
   8790 ****        33.0000  17.5000  58.0000 Du        
   8791 ****        33.0000  17.5000  58.2500 Du        
   8792 ****        33.0000  17.7500  57.2500 Du        
   8793 ****        33.0000  17.7500  57.5000 Du        
   8794 ****        33.0000  17.7500  57.7500 Du        
   8795 ****        33.0000  17.7500  58.0000 Du        
   8796 ****        33.0000  17.7500  58.2500 Du        
   8797 ****        33.0000  17.7500  58.5000 Du        
   8798 ****        33.0000  18.0000  57.2500 Du        
   8799 ****        33.0000  18.0000  57.5000 Du        
   8800 ****        33.0000  18.0000  57.7500 Du        
   8801 ****        33.0000  18.0000  58.0000 Du        
   8802 ****        33.0000  18.0000  58.2500 Du        
   8803 ****        33.0000  18.0000  58.5000 Du        
   8804 ****        33.0000  18.0000  58.7500 Du        
   8805 ****        33.0000  18.2500  57.2500 Du        
   8806 ****        33.0000  18.2500  57.5000 Du        
   8807 ****        33.0000  18.2500  57.7500 Du        
   8808 ****        33.0000  18.2500  58.0000 Du        
   8809 ****        33.0000  18.2500  58.2500 Du        
   8810 ****        33.0000  18.2500  58.5000 Du        
   8811 ****        33.0000  18.2500  58.7500 Du        
   8812 ****        33.0000  18.2500  59.0000 Du        
   8813 ****        33.0000  18.2500  59.2500 Du        
   8814 ****        33.0000  18.5000  57.2500 Du        
   8815 ****        33.0000  18.5000  57.5000 Du        
   8816 ****        33.0000  18.5000  57.7500 Du        
   8817 ****        33.0000  18.5000  58.0000 Du        
   8818 ****        33.0000  18.5000  58.2500 Du        
   8819 ****        33.0000  18.5000  58.5000 Du        
   8820 ****        33.0000  18.5000  58.7500 Du        
   8821 ****        33.0000  18.5000  59.0000 Du        
   8822 ****        33.0000  18.7500  57.2500 Du        
   8823 ****        33.0000  18.7500  57.5000 Du        
   8824 ****        33.0000  18.7500  57.7500 Du        
   8825 ****        33.0000  18.7500  58.0000 Du        
   8826 ****        33.0000  18.7500  58.2500 Du        
   8827 ****        33.0000  18.7500  58.5000 Du        
   8828 ****        33.0000  18.7500  58.7500 Du        
   8829 ****        33.0000  18.7500  59.0000 Du        
   8830 ****        33.0000  18.7500  59.2500 Du        
   8831 ****        33.0000  18.7500  59.5000 Du        
   8832 ****        33.0000  18.7500  59.7500 Du        
   8833 ****        33.0000  19.0000  57.2500 Du        
   8834 ****        33.0000  19.0000  57.5000 Du        
   8835 ****        33.0000  19.0000  57.7500 Du        
   8836 ****        33.0000  19.0000  58.0000 Du        
   8837 ****        33.0000  19.0000  58.2500 Du        
   8838 ****        33.0000  19.0000  58.5000 Du        
   8839 ****        33.0000  19.0000  58.7500 Du        
   8840 ****        33.0000  19.0000  59.0000 Du        
   8841 ****        33.0000  19.0000  59.2500 Du        
   8842 ****        33.0000  19.0000  59.5000 Du        
   8843 ****        33.0000  19.0000  59.7500 Du        
   8844 ****        33.0000  19.2500  57.2500 Du        
   8845 ****        33.0000  19.2500  57.5000 Du        
   8846 ****        33.0000  19.2500  57.7500 Du        
   8847 ****        33.0000  19.2500  58.0000 Du        
   8848 ****        33.0000  19.2500  58.2500 Du        
   8849 ****        33.0000  19.2500  58.5000 Du        
   8850 ****        33.0000  19.2500  58.7500 Du        
   8851 ****        33.0000  19.2500  59.0000 Du        
   8852 ****        33.0000  19.2500  59.2500 Du        
   8853 ****        33.0000  19.2500  59.5000 Du        
   8854 ****        33.0000  19.2500  59.7500 Du        
   8855 ****        33.0000  19.5000  57.2500 Du        
   8856 ****        33.0000  19.5000  57.5000 Du        
   8857 ****        33.0000  19.5000  57.7500 Du        
   8858 ****        33.0000  19.5000  58.0000 Du        
   8859 ****        33.0000  19.5000  58.2500 Du        
   8860 ****        33.0000  19.5000  58.5000 Du        
   8861 ****        33.0000  19.5000  58.7500 Du        
   8862 ****        33.0000  19.5000  59.0000 Du        
   8863 ****        33.0000  19.5000  59.2500 Du        
   8864 ****        33.0000  19.5000  59.7500 Du        
   8865 ****        33.0000  19.7500  57.5000 Du        
   8866 ****        33.0000  19.7500  57.7500 Du        
   8867 ****        33.0000  19.7500  58.0000 Du        
   8868 ****        33.0000  19.7500  58.2500 Du        
   8869 ****        33.0000  19.7500  58.5000 Du        
   8870 ****        33.0000  19.7500  58.7500 Du        
   8871 ****        33.0000  19.7500  59.0000 Du        
   8872 ****        33.0000  19.7500  59.2500 Du        
   8873 ****        33.0000  20.0000  57.5000 Du        
   8874 ****        33.0000  20.0000  57.7500 Du        
   8875 ****        33.0000  20.0000  58.0000 Du        
   8876 ****        33.0000  20.0000  58.2500 Du        
   8877 ****        33.0000  20.0000  58.5000 Du        
   8878 ****        33.0000  20.0000  58.7500 Du        
   8879 ****        33.0000  20.0000  59.0000 Du        
   8880 ****        33.0000  20.0000  59.2500 Du        
   8881 ****        33.0000  20.2500  57.7500 Du        
   8882 ****        33.0000  20.2500  58.0000 Du        
   8883 ****        33.0000  20.2500  58.2500 Du        
   8884 ****        33.0000  20.2500  58.5000 Du        
   8885 ****        33.0000  20.2500  58.7500 Du        
   8886 ****        33.0000  20.2500  59.0000 Du        
   8887 ****        33.0000  20.2500  59.2500 Du        
   8888 ****        33.0000  20.5000  58.0000 Du        
   8889 ****        33.0000  20.5000  58.2500 Du        
   8890 ****        33.0000  20.5000  58.5000 Du        
   8891 ****        33.0000  20.5000  58.7500 Du        
   8892 ****        33.0000  20.5000  59.0000 Du        
   8893 ****        33.0000  20.5000  59.2500 Du        
   8894 ****        33.0000  20.7500  58.0000 Du        
   8895 ****        33.0000  20.7500  58.2500 Du        
   8896 ****        33.0000  20.7500  58.5000 Du        
   8897 ****        33.0000  20.7500  58.7500 Du        
   8898 ****        33.0000  20.7500  59.0000 Du        
   8899 ****        33.0000  20.7500  59.2500 Du        
   8900 ****        33.0000  21.0000  58.2500 Du        
   8901 ****        33.0000  21.0000  58.5000 Du        
   8902 ****        33.0000  21.0000  58.7500 Du        
   8903 ****        33.0000  21.0000  59.0000 Du        
   8904 ****        33.0000  21.0000  59.2500 Du        
   8905 ****        33.0000  21.2500  58.2500 Du        
   8906 ****        33.0000  21.2500  58.5000 Du        
   8907 ****        33.0000  21.2500  58.7500 Du        
   8908 ****        33.0000  21.2500  59.0000 Du        
   8909 ****        33.0000  21.2500  59.2500 Du        
   8910 ****        33.0000  21.5000  58.5000 Du        
   8911 ****        33.0000  21.5000  58.7500 Du        
   8912 ****        33.0000  21.7500  58.5000 Du        
   8913 ****        33.0000  21.7500  58.7500 Du        
   8914 ****        33.0000  22.0000  58.7500 Du        
   8915 ****        33.0000  22.0000  59.0000 Du        
   8916 ****        33.0000  22.2500  58.7500 Du        
   8917 ****        33.0000  30.0000  53.5000 Du        
   8918 ****        33.0000  30.2500  53.2500 Du        
   8919 ****        33.0000  30.2500  53.5000 Du        
   8920 ****        33.0000  30.2500  53.7500 Du        
   8921 ****        33.0000  30.2500  54.0000 Du        
   8922 ****        33.0000  30.5000  53.5000 Du        
   8923 ****        33.0000  30.5000  53.7500 Du        
   8924 ****        33.0000  30.5000  54.0000 Du        
   8925 ****        33.0000  30.5000  54.2500 Du        
   8926 ****        33.0000  30.7500  53.5000 Du        
   8927 ****        33.0000  30.7500  53.7500 Du        
   8928 ****        33.0000  30.7500  54.0000 Du        
   8929 ****        33.0000  30.7500  54.2500 Du        
   8930 ****        33.0000  30.7500  54.5000 Du        
   8931 ****        33.0000  30.7500  54.7500 Du        
   8932 ****        33.0000  30.7500  55.0000 Du        
   8933 ****        33.0000  31.0000  53.5000 Du        
   8934 ****        33.0000  31.0000  53.7500 Du        
   8935 ****        33.0000  31.0000  54.0000 Du        
   8936 ****        33.0000  31.0000  54.2500 Du        
   8937 ****        33.0000  31.0000  54.5000 Du        
   8938 ****        33.0000  31.0000  54.7500 Du        
   8939 ****        33.0000  31.0000  55.0000 Du        
   8940 ****        33.0000  31.0000  55.2500 Du        
   8941 ****        33.0000  31.2500  53.5000 Du        
   8942 ****        33.0000  31.2500  53.7500 Du        
   8943 ****        33.0000  31.2500  54.0000 Du        
   8944 ****        33.0000  31.2500  54.2500 Du        
   8945 ****        33.0000  31.2500  54.5000 Du        
   8946 ****        33.0000  31.2500  54.7500 Du        
   8947 ****        33.0000  31.2500  55.0000 Du        
   8948 ****        33.0000  31.2500  55.2500 Du        
   8949 ****        33.0000  31.2500  55.5000 Du        
   8950 ****        33.0000  31.2500  55.7500 Du        
   8951 ****        33.0000  31.2500  56.0000 Du        
   8952 ****        33.0000  31.5000  53.5000 Du        
   8953 ****        33.0000  31.5000  53.7500 Du        
   8954 ****        33.0000  31.5000  54.0000 Du        
   8955 ****        33.0000  31.5000  54.2500 Du        
   8956 ****        33.0000  31.5000  54.5000 Du        
   8957 ****        33.0000  31.5000  54.7500 Du        
   8958 ****        33.0000  31.5000  55.0000 Du        
   8959 ****        33.0000  31.5000  55.2500 Du        
   8960 ****        33.0000  31.5000  55.5000 Du        
   8961 ****        33.0000  31.5000  55.7500 Du        
   8962 ****        33.0000  31.5000  56.0000 Du        
   8963 ****        33.0000  31.7500  53.5000 Du        
   8964 ****        33.0000  31.7500  53.7500 Du        
   8965 ****        33.0000  31.7500  54.0000 Du        
   8966 ****        33.0000  31.7500  54.2500 Du        
   8967 ****        33.0000  31.7500  54.5000 Du        
   8968 ****        33.0000  31.7500  54.7500 Du        
   8969 ****        33.0000  31.7500  55.0000 Du        
   8970 ****        33.0000  31.7500  55.2500 Du        
   8971 ****        33.0000  31.7500  55.5000 Du        
   8972 ****        33.0000  31.7500  55.7500 Du        
   8973 ****        33.0000  31.7500  56.0000 Du        
   8974 ****        33.0000  31.7500  56.2500 Du        
   8975 ****        33.0000  32.0000  54.0000 Du        
   8976 ****        33.0000  32.0000  54.2500 Du        
   8977 ****        33.0000  32.0000  54.5000 Du        
   8978 ****        33.0000  32.0000  54.7500 Du        
   8979 ****        33.0000  32.0000  55.0000 Du        
   8980 ****        33.0000  32.0000  55.2500 Du        
   8981 ****        33.0000  36.0000  58.2500 Du        
   8982 ****        33.0000  36.0000  58.5000 Du        
   8983 ****        33.0000  36.0000  58.7500 Du        
   8984 ****        33.0000  36.0000  59.0000 Du        
   8985 ****        33.0000  36.0000  59.2500 Du        
   8986 ****        33.0000  36.2500  58.2500 Du        
   8987 ****        33.0000  36.2500  58.5000 Du        
   8988 ****        33.0000  36.2500  58.7500 Du        
   8989 ****        33.0000  36.2500  59.0000 Du        
   8990 ****        33.0000  36.2500  59.2500 Du        
   8991 ****        33.0000  36.5000  58.2500 Du        
   8992 ****        33.0000  36.5000  58.5000 Du        
   8993 ****        33.0000  36.5000  58.7500 Du        
   8994 ****        33.0000  36.5000  59.0000 Du        
   8995 ****        33.0000  36.5000  59.2500 Du        
   8996 ****        33.0000  36.7500  58.5000 Du        
   8997 ****        33.0000  36.7500  58.7500 Du        
   8998 ****        33.0000  36.7500  59.0000 Du        
   8999 ****        33.0000  37.0000  58.7500 Du        
   9000 ****        33.0000  42.5000  45.0000 Du        
   9001 ****        33.0000  42.5000  45.2500 Du        
   9002 ****        33.0000  42.7500  45.0000 Du        
   9003 ****        33.0000  42.7500  45.2500 Du        
   9004 ****        33.0000  42.7500  45.5000 Du        
   9005 ****        33.0000  42.7500  45.7500 Du        
   9006 ****        33.0000  42.7500  46.0000 Du        
   9007 ****        33.0000  42.7500  46.2500 Du        
   9008 ****        33.0000  42.7500  46.5000 Du        
   9009 ****        33.0000  42.7500  46.7500 Du        
   9010 ****        33.0000  42.7500  47.0000 Du        
   9011 ****        33.0000  43.0000  45.0000 Du        
   9012 ****        33.0000  43.0000  45.2500 Du        
   9013 ****        33.0000  43.0000  45.5000 Du        
   9014 ****        33.0000  43.0000  45.7500 Du        
   9015 ****        33.0000  43.0000  46.0000 Du        
   9016 ****        33.0000  43.0000  46.2500 Du        
   9017 ****        33.0000  43.0000  46.5000 Du        
   9018 ****        33.0000  43.0000  46.7500 Du        
   9019 ****        33.0000  43.0000  47.0000 Du        
   9020 ****        33.0000  43.0000  47.2500 Du        
   9021 ****        33.0000  43.2500  44.7500 Du        
   9022 ****        33.0000  43.2500  45.0000 Du        
   9023 ****        33.0000  43.2500  45.2500 Du        
   9024 ****        33.0000  43.2500  45.5000 Du        
   9025 ****        33.0000  43.2500  45.7500 Du        
   9026 ****        33.0000  43.2500  46.0000 Du        
   9027 ****        33.0000  43.2500  46.2500 Du        
   9028 ****        33.0000  43.2500  46.5000 Du        
   9029 ****        33.0000  43.2500  46.7500 Du        
   9030 ****        33.0000  43.2500  47.0000 Du        
   9031 ****        33.0000  43.2500  47.2500 Du        
   9032 ****        33.0000  43.5000  44.7500 Du        
   9033 ****        33.0000  43.5000  45.0000 Du        
   9034 ****        33.0000  43.5000  45.2500 Du        
   9035 ****        33.0000  43.5000  45.5000 Du        
   9036 ****        33.0000  43.5000  45.7500 Du        
   9037 ****        33.0000  43.5000  46.0000 Du        
   9038 ****        33.0000  43.5000  46.2500 Du        
   9039 ****        33.0000  43.5000  46.5000 Du        
   9040 ****        33.0000  43.5000  46.7500 Du        
   9041 ****        33.0000  43.5000  47.0000 Du        
   9042 ****        33.0000  43.7500  44.7500 Du        
   9043 ****        33.0000  43.7500  45.0000 Du        
   9044 ****        33.0000  43.7500  45.2500 Du        
   9045 ****        33.0000  43.7500  45.5000 Du        
   9046 ****        33.0000  43.7500  45.7500 Du        
   9047 ****        33.0000  43.7500  46.0000 Du        
   9048 ****        33.0000  43.7500  46.2500 Du        
   9049 ****        33.0000  43.7500  46.5000 Du        
   9050 ****        33.0000  43.7500  46.7500 Du        
   9051 ****        33.0000  43.7500  47.0000 Du        
   9052 ****        33.0000  44.0000  44.5000 Du        
   9053 ****        33.0000  44.0000  44.7500 Du        
   9054 ****        33.0000  44.0000  45.0000 Du        
   9055 ****        33.0000  44.0000  45.2500 Du        
   9056 ****        33.0000  44.0000  45.5000 Du        
   9057 ****        33.0000  44.0000  45.7500 Du        
   9058 ****        33.0000  44.0000  46.0000 Du        
   9059 ****        33.0000  44.0000  46.2500 Du        
   9060 ****        33.0000  44.0000  46.5000 Du        
   9061 ****        33.0000  44.0000  46.7500 Du        
   9062 ****        33.0000  44.0000  47.0000 Du        
   9063 ****        33.0000  44.2500  44.5000 Du        
   9064 ****        33.0000  44.2500  44.7500 Du        
   9065 ****        33.0000  44.2500  45.0000 Du        
   9066 ****        33.0000  44.2500  45.2500 Du        
   9067 ****        33.0000  44.2500  45.5000 Du        
   9068 ****        33.0000  44.2500  45.7500 Du        
   9069 ****        33.0000  44.2500  46.0000 Du        
   9070 ****        33.0000  44.2500  46.2500 Du        
   9071 ****        33.0000  44.2500  46.5000 Du        
   9072 ****        33.0000  44.2500  46.7500 Du        
   9073 ****        33.0000  44.2500  47.0000 Du        
   9074 ****        33.0000  44.5000  44.2500 Du        
   9075 ****        33.0000  44.5000  44.5000 Du        
   9076 ****        33.0000  44.5000  44.7500 Du        
   9077 ****        33.0000  44.5000  45.0000 Du        
   9078 ****        33.0000  44.5000  45.2500 Du        
   9079 ****        33.0000  44.5000  45.5000 Du        
   9080 ****        33.0000  44.5000  45.7500 Du        
   9081 ****        33.0000  44.5000  46.0000 Du        
   9082 ****        33.0000  44.5000  46.2500 Du        
   9083 ****        33.0000  44.5000  46.5000 Du        
   9084 ****        33.0000  44.5000  46.7500 Du        
   9085 ****        33.0000  44.7500  44.0000 Du        
   9086 ****        33.0000  44.7500  44.2500 Du        
   9087 ****        33.0000  44.7500  44.5000 Du        
   9088 ****        33.0000  44.7500  44.7500 Du        
   9089 ****        33.0000  44.7500  45.0000 Du        
   9090 ****        33.0000  44.7500  45.2500 Du        
   9091 ****        33.0000  44.7500  45.5000 Du        
   9092 ****        33.0000  44.7500  45.7500 Du        
   9093 ****        33.0000  44.7500  46.0000 Du        
   9094 ****        33.0000  44.7500  46.2500 Du        
   9095 ****        33.0000  45.0000  44.0000 Du        
   9096 ****        33.0000  45.0000  44.2500 Du        
   9097 ****        33.0000  45.0000  44.5000 Du        
   9098 ****        33.0000  45.0000  44.7500 Du        
   9099 ****        33.0000  45.0000  45.0000 Du        
   9100 ****        33.0000  45.0000  45.2500 Du        
   9101 ****        33.0000  45.0000  45.5000 Du        
   9102 ****        33.0000  45.0000  45.7500 Du        
   9103 ****        33.0000  45.0000  46.0000 Du        
   9104 ****        33.0000  45.0000  46.2500 Du        
   9105 ****        33.0000  45.2500  43.7500 Du        
   9106 ****        33.0000  45.2500  44.0000 Du        
   9107 ****        33.0000  45.2500  44.2500 Du        
   9108 ****        33.0000  45.2500  44.5000 Du        
   9109 ****        33.0000  45.2500  44.7500 Du        
   9110 ****        33.0000  45.2500  45.0000 Du        
   9111 ****        33.0000  45.2500  45.2500 Du        
   9112 ****        33.0000  45.2500  45.5000 Du        
   9113 ****        33.2500  15.0000  57.0000 Du        
   9114 ****        33.2500  15.0000  57.2500 Du        
   9115 ****        33.2500  15.0000  57.5000 Du        
   9116 ****        33.2500  15.2500  57.2500 Du        
   9117 ****        33.2500  15.2500  57.5000 Du        
   9118 ****        33.2500  15.2500  57.7500 Du        
   9119 ****        33.2500  15.5000  57.2500 Du        
   9120 ****        33.2500  15.5000  57.5000 Du        
   9121 ****        33.2500  15.5000  57.7500 Du        
   9122 ****        33.2500  15.7500  57.5000 Du        
   9123 ****        33.2500  15.7500  57.7500 Du        
   9124 ****        33.2500  16.0000  57.5000 Du        
   9125 ****        33.2500  16.0000  57.7500 Du        
   9126 ****        33.2500  16.0000  58.0000 Du        
   9127 ****        33.2500  16.2500  57.5000 Du        
   9128 ****        33.2500  16.2500  57.7500 Du        
   9129 ****        33.2500  16.2500  58.0000 Du        
   9130 ****        33.2500  16.5000  57.5000 Du        
   9131 ****        33.2500  16.5000  57.7500 Du        
   9132 ****        33.2500  16.5000  58.0000 Du        
   9133 ****        33.2500  16.7500  57.5000 Du        
   9134 ****        33.2500  16.7500  57.7500 Du        
   9135 ****        33.2500  16.7500  58.0000 Du        
   9136 ****        33.2500  17.0000  57.5000 Du        
   9137 ****        33.2500  17.0000  57.7500 Du        
   9138 ****        33.2500  17.0000  58.0000 Du        
   9139 ****        33.2500  17.2500  57.5000 Du        
   9140 ****        33.2500  17.2500  57.7500 Du        
   9141 ****        33.2500  17.2500  58.0000 Du        
   9142 ****        33.2500  17.2500  58.2500 Du        
   9143 ****        33.2500  17.5000  57.5000 Du        
   9144 ****        33.2500  17.5000  57.7500 Du        
   9145 ****        33.2500  17.5000  58.0000 Du        
   9146 ****        33.2500  17.5000  58.2500 Du        
   9147 ****        33.2500  17.7500  57.5000 Du        
   9148 ****        33.2500  17.7500  57.7500 Du        
   9149 ****        33.2500  17.7500  58.0000 Du        
   9150 ****        33.2500  17.7500  58.2500 Du        
   9151 ****        33.2500  17.7500  58.5000 Du        
   9152 ****        33.2500  17.7500  58.7500 Du        
   9153 ****        33.2500  18.0000  57.2500 Du        
   9154 ****        33.2500  18.0000  57.5000 Du        
   9155 ****        33.2500  18.0000  57.7500 Du        
   9156 ****        33.2500  18.0000  58.0000 Du        
   9157 ****        33.2500  18.0000  58.2500 Du        
   9158 ****        33.2500  18.0000  58.5000 Du        
   9159 ****        33.2500  18.0000  58.7500 Du        
   9160 ****        33.2500  18.0000  59.0000 Du        
   9161 ****        33.2500  18.2500  57.2500 Du        
   9162 ****        33.2500  18.2500  57.5000 Du        
   9163 ****        33.2500  18.2500  57.7500 Du        
   9164 ****        33.2500  18.2500  58.0000 Du        
   9165 ****        33.2500  18.2500  58.2500 Du        
   9166 ****        33.2500  18.2500  58.5000 Du        
   9167 ****        33.2500  18.2500  58.7500 Du        
   9168 ****        33.2500  18.2500  59.0000 Du        
   9169 ****        33.2500  18.2500  59.2500 Du        
   9170 ****        33.2500  18.5000  57.2500 Du        
   9171 ****        33.2500  18.5000  57.5000 Du        
   9172 ****        33.2500  18.5000  57.7500 Du        
   9173 ****        33.2500  18.5000  58.0000 Du        
   9174 ****        33.2500  18.5000  58.2500 Du        
   9175 ****        33.2500  18.5000  58.5000 Du        
   9176 ****        33.2500  18.5000  58.7500 Du        
   9177 ****        33.2500  18.5000  59.0000 Du        
   9178 ****        33.2500  18.5000  59.2500 Du        
   9179 ****        33.2500  18.5000  59.5000 Du        
   9180 ****        33.2500  18.7500  57.2500 Du        
   9181 ****        33.2500  18.7500  57.5000 Du        
   9182 ****        33.2500  18.7500  57.7500 Du        
   9183 ****        33.2500  18.7500  58.0000 Du        
   9184 ****        33.2500  18.7500  58.2500 Du        
   9185 ****        33.2500  18.7500  58.5000 Du        
   9186 ****        33.2500  18.7500  58.7500 Du        
   9187 ****        33.2500  18.7500  59.0000 Du        
   9188 ****        33.2500  18.7500  59.2500 Du        
   9189 ****        33.2500  18.7500  59.5000 Du        
   9190 ****        33.2500  18.7500  59.7500 Du        
   9191 ****        33.2500  19.0000  57.2500 Du        
   9192 ****        33.2500  19.0000  57.5000 Du        
   9193 ****        33.2500  19.0000  57.7500 Du        
   9194 ****        33.2500  19.0000  58.0000 Du        
   9195 ****        33.2500  19.0000  58.2500 Du        
   9196 ****        33.2500  19.0000  58.5000 Du        
   9197 ****        33.2500  19.0000  58.7500 Du        
   9198 ****        33.2500  19.0000  59.0000 Du        
   9199 ****        33.2500  19.0000  59.2500 Du        
   9200 ****        33.2500  19.0000  59.5000 Du        
   9201 ****        33.2500  19.0000  59.7500 Du        
   9202 ****        33.2500  19.0000  60.0000 Du        
   9203 ****        33.2500  19.2500  57.2500 Du        
   9204 ****        33.2500  19.2500  57.5000 Du        
   9205 ****        33.2500  19.2500  57.7500 Du        
   9206 ****        33.2500  19.2500  58.0000 Du        
   9207 ****        33.2500  19.2500  58.2500 Du        
   9208 ****        33.2500  19.2500  58.5000 Du        
   9209 ****        33.2500  19.2500  58.7500 Du        
   9210 ****        33.2500  19.2500  59.0000 Du        
   9211 ****        33.2500  19.2500  59.2500 Du        
   9212 ****        33.2500  19.2500  59.5000 Du        
   9213 ****        33.2500  19.2500  59.7500 Du        
   9214 ****        33.2500  19.2500  60.0000 Du        
   9215 ****        33.2500  19.5000  57.2500 Du        
   9216 ****        33.2500  19.5000  57.5000 Du        
   9217 ****        33.2500  19.5000  57.7500 Du        
   9218 ****        33.2500  19.5000  58.0000 Du        
   9219 ****        33.2500  19.5000  58.2500 Du        
   9220 ****        33.2500  19.5000  58.5000 Du        
   9221 ****        33.2500  19.5000  58.7500 Du        
   9222 ****        33.2500  19.5000  59.0000 Du        
   9223 ****        33.2500  19.5000  59.2500 Du        
   9224 ****        33.2500  19.5000  59.5000 Du        
   9225 ****        33.2500  19.7500  57.5000 Du        
   9226 ****        33.2500  19.7500  57.7500 Du        
   9227 ****        33.2500  19.7500  58.0000 Du        
   9228 ****        33.2500  19.7500  58.2500 Du        
   9229 ****        33.2500  19.7500  58.5000 Du        
   9230 ****        33.2500  19.7500  58.7500 Du        
   9231 ****        33.2500  19.7500  59.0000 Du        
   9232 ****        33.2500  19.7500  59.2500 Du        
   9233 ****        33.2500  20.0000  57.7500 Du        
   9234 ****        33.2500  20.0000  58.0000 Du        
   9235 ****        33.2500  20.0000  58.2500 Du        
   9236 ****        33.2500  20.0000  58.5000 Du        
   9237 ****        33.2500  20.0000  58.7500 Du        
   9238 ****        33.2500  20.0000  59.0000 Du        
   9239 ****        33.2500  20.0000  59.2500 Du        
   9240 ****        33.2500  20.2500  57.7500 Du        
   9241 ****        33.2500  20.2500  58.0000 Du        
   9242 ****        33.2500  20.2500  58.2500 Du        
   9243 ****        33.2500  20.2500  58.5000 Du        
   9244 ****        33.2500  20.2500  58.7500 Du        
   9245 ****        33.2500  20.2500  59.0000 Du        
   9246 ****        33.2500  20.2500  59.2500 Du        
   9247 ****        33.2500  20.5000  58.0000 Du        
   9248 ****        33.2500  20.5000  58.2500 Du        
   9249 ****        33.2500  20.5000  58.5000 Du        
   9250 ****        33.2500  20.5000  58.7500 Du        
   9251 ****        33.2500  20.5000  59.0000 Du        
   9252 ****        33.2500  20.5000  59.2500 Du        
   9253 ****        33.2500  20.7500  58.2500 Du        
   9254 ****        33.2500  20.7500  58.5000 Du        
   9255 ****        33.2500  20.7500  58.7500 Du        
   9256 ****        33.2500  20.7500  59.0000 Du        
   9257 ****        33.2500  20.7500  59.2500 Du        
   9258 ****        33.2500  21.0000  58.2500 Du        
   9259 ****        33.2500  21.0000  58.5000 Du        
   9260 ****        33.2500  21.0000  58.7500 Du        
   9261 ****        33.2500  21.0000  59.0000 Du        
   9262 ****        33.2500  21.2500  58.2500 Du        
   9263 ****        33.2500  21.2500  58.5000 Du        
   9264 ****        33.2500  21.2500  58.7500 Du        
   9265 ****        33.2500  21.2500  59.0000 Du        
   9266 ****        33.2500  21.2500  59.2500 Du        
   9267 ****        33.2500  30.2500  53.2500 Du        
   9268 ****        33.2500  30.2500  53.5000 Du        
   9269 ****        33.2500  30.2500  53.7500 Du        
   9270 ****        33.2500  30.5000  53.2500 Du        
   9271 ****        33.2500  30.5000  53.5000 Du        
   9272 ****        33.2500  30.5000  53.7500 Du        
   9273 ****        33.2500  30.5000  54.0000 Du        
   9274 ****        33.2500  30.5000  54.2500 Du        
   9275 ****        33.2500  30.7500  53.2500 Du        
   9276 ****        33.2500  30.7500  53.5000 Du        
   9277 ****        33.2500  30.7500  53.7500 Du        
   9278 ****        33.2500  30.7500  54.0000 Du        
   9279 ****        33.2500  30.7500  54.2500 Du        
   9280 ****        33.2500  30.7500  54.5000 Du        
   9281 ****        33.2500  30.7500  54.7500 Du        
   9282 ****        33.2500  31.0000  53.2500 Du        
   9283 ****        33.2500  31.0000  53.5000 Du        
   9284 ****        33.2500  31.0000  53.7500 Du        
   9285 ****        33.2500  31.0000  54.0000 Du        
   9286 ****        33.2500  31.0000  54.2500 Du        
   9287 ****        33.2500  31.0000  54.5000 Du        
   9288 ****        33.2500  31.0000  54.7500 Du        
   9289 ****        33.2500  31.0000  55.0000 Du        
   9290 ****        33.2500  31.0000  55.2500 Du        
   9291 ****        33.2500  31.2500  53.2500 Du        
   9292 ****        33.2500  31.2500  53.5000 Du        
   9293 ****        33.2500  31.2500  53.7500 Du        
   9294 ****        33.2500  31.2500  54.0000 Du        
   9295 ****        33.2500  31.2500  54.2500 Du        
   9296 ****        33.2500  31.2500  54.5000 Du        
   9297 ****        33.2500  31.2500  54.7500 Du        
   9298 ****        33.2500  31.2500  55.0000 Du        
   9299 ****        33.2500  31.2500  55.2500 Du        
   9300 ****        33.2500  31.2500  55.5000 Du        
   9301 ****        33.2500  31.2500  55.7500 Du        
   9302 ****        33.2500  31.5000  53.2500 Du        
   9303 ****        33.2500  31.5000  53.5000 Du        
   9304 ****        33.2500  31.5000  53.7500 Du        
   9305 ****        33.2500  31.5000  54.0000 Du        
   9306 ****        33.2500  31.5000  54.2500 Du        
   9307 ****        33.2500  31.5000  54.5000 Du        
   9308 ****        33.2500  31.5000  54.7500 Du        
   9309 ****        33.2500  31.5000  55.0000 Du        
   9310 ****        33.2500  31.5000  55.2500 Du        
   9311 ****        33.2500  31.5000  55.5000 Du        
   9312 ****        33.2500  31.7500  53.2500 Du        
   9313 ****        33.2500  31.7500  53.5000 Du        
   9314 ****        33.2500  31.7500  53.7500 Du        
   9315 ****        33.2500  31.7500  54.0000 Du        
   9316 ****        33.2500  31.7500  54.2500 Du        
   9317 ****        33.2500  31.7500  54.5000 Du        
   9318 ****        33.2500  31.7500  54.7500 Du        
   9319 ****        33.2500  31.7500  55.0000 Du        
   9320 ****        33.2500  31.7500  55.2500 Du        
   9321 ****        33.2500  32.0000  53.2500 Du        
   9322 ****        33.2500  32.0000  53.5000 Du        
   9323 ****        33.2500  32.0000  53.7500 Du        
   9324 ****        33.2500  32.0000  54.0000 Du        
   9325 ****        33.2500  32.0000  54.2500 Du        
   9326 ****        33.2500  32.0000  54.5000 Du        
   9327 ****        33.2500  32.0000  54.7500 Du        
   9328 ****        33.2500  32.0000  55.0000 Du        
   9329 ****        33.2500  32.0000  55.2500 Du        
   9330 ****        33.2500  36.0000  58.7500 Du        
   9331 ****        33.2500  36.0000  59.0000 Du        
   9332 ****        33.2500  36.0000  59.2500 Du        
   9333 ****        33.2500  36.2500  58.5000 Du        
   9334 ****        33.2500  36.2500  58.7500 Du        
   9335 ****        33.2500  36.2500  59.0000 Du        
   9336 ****        33.2500  36.2500  59.2500 Du        
   9337 ****        33.2500  36.5000  58.2500 Du        
   9338 ****        33.2500  36.5000  58.5000 Du        
   9339 ****        33.2500  36.5000  58.7500 Du        
   9340 ****        33.2500  36.5000  59.0000 Du        
   9341 ****        33.2500  36.5000  59.2500 Du        
   9342 ****        33.2500  36.7500  58.5000 Du        
   9343 ****        33.2500  36.7500  58.7500 Du        
   9344 ****        33.2500  36.7500  59.0000 Du        
   9345 ****        33.2500  36.7500  59.2500 Du        
   9346 ****        33.2500  37.0000  58.5000 Du        
   9347 ****        33.2500  37.0000  58.7500 Du        
   9348 ****        33.2500  37.0000  59.0000 Du        
   9349 ****        33.2500  37.2500  58.7500 Du        
   9350 ****        33.2500  42.5000  45.0000 Du        
   9351 ****        33.2500  42.5000  45.2500 Du        
   9352 ****        33.2500  42.5000  45.5000 Du        
   9353 ****        33.2500  42.7500  44.7500 Du        
   9354 ****        33.2500  42.7500  45.0000 Du        
   9355 ****        33.2500  42.7500  45.2500 Du        
   9356 ****        33.2500  42.7500  45.5000 Du        
   9357 ****        33.2500  42.7500  45.7500 Du        
   9358 ****        33.2500  42.7500  46.0000 Du        
   9359 ****        33.2500  42.7500  46.2500 Du        
   9360 ****        33.2500  42.7500  46.5000 Du        
   9361 ****        33.2500  42.7500  46.7500 Du        
   9362 ****        33.2500  42.7500  47.0000 Du        
   9363 ****        33.2500  42.7500  47.2500 Du        
   9364 ****        33.2500  43.0000  44.7500 Du        
   9365 ****        33.2500  43.0000  45.0000 Du        
   9366 ****        33.2500  43.0000  45.2500 Du        
   9367 ****        33.2500  43.0000  45.5000 Du        
   9368 ****        33.2500  43.0000  45.7500 Du        
   9369 ****        33.2500  43.0000  46.0000 Du        
   9370 ****        33.2500  43.0000  46.2500 Du        
   9371 ****        33.2500  43.0000  46.5000 Du        
   9372 ****        33.2500  43.0000  46.7500 Du        
   9373 ****        33.2500  43.0000  47.0000 Du        
   9374 ****        33.2500  43.0000  47.2500 Du        
   9375 ****        33.2500  43.2500  44.7500 Du        
   9376 ****        33.2500  43.2500  45.0000 Du        
   9377 ****        33.2500  43.2500  45.2500 Du        
   9378 ****        33.2500  43.2500  45.5000 Du        
   9379 ****        33.2500  43.2500  45.7500 Du        
   9380 ****        33.2500  43.2500  46.0000 Du        
   9381 ****        33.2500  43.2500  46.2500 Du        
   9382 ****        33.2500  43.2500  46.5000 Du        
   9383 ****        33.2500  43.2500  46.7500 Du        
   9384 ****        33.2500  43.2500  47.0000 Du        
   9385 ****        33.2500  43.2500  47.2500 Du        
   9386 ****        33.2500  43.5000  44.7500 Du        
   9387 ****        33.2500  43.5000  45.0000 Du        
   9388 ****        33.2500  43.5000  45.2500 Du        
   9389 ****        33.2500  43.5000  45.5000 Du        
   9390 ****        33.2500  43.5000  45.7500 Du        
   9391 ****        33.2500  43.5000  46.0000 Du        
   9392 ****        33.2500  43.5000  46.2500 Du        
   9393 ****        33.2500  43.5000  46.5000 Du        
   9394 ****        33.2500  43.5000  46.7500 Du        
   9395 ****        33.2500  43.5000  47.0000 Du        
   9396 ****        33.2500  43.5000  47.2500 Du        
   9397 ****        33.2500  43.7500  44.5000 Du        
   9398 ****        33.2500  43.7500  44.7500 Du        
   9399 ****        33.2500  43.7500  45.0000 Du        
   9400 ****        33.2500  43.7500  45.2500 Du        
   9401 ****        33.2500  43.7500  45.5000 Du        
   9402 ****        33.2500  43.7500  45.7500 Du        
   9403 ****        33.2500  43.7500  46.0000 Du        
   9404 ****        33.2500  43.7500  46.2500 Du        
   9405 ****        33.2500  43.7500  46.5000 Du        
   9406 ****        33.2500  43.7500  46.7500 Du        
   9407 ****        33.2500  43.7500  47.0000 Du        
   9408 ****        33.2500  44.0000  44.5000 Du        
   9409 ****        33.2500  44.0000  44.7500 Du        
   9410 ****        33.2500  44.0000  45.0000 Du        
   9411 ****        33.2500  44.0000  45.2500 Du        
   9412 ****        33.2500  44.0000  45.5000 Du        
   9413 ****        33.2500  44.0000  45.7500 Du        
   9414 ****        33.2500  44.0000  46.0000 Du        
   9415 ****        33.2500  44.0000  46.2500 Du        
   9416 ****        33.2500  44.0000  46.5000 Du        
   9417 ****        33.2500  44.0000  46.7500 Du        
   9418 ****        33.2500  44.0000  47.0000 Du        
   9419 ****        33.2500  44.2500  44.5000 Du        
   9420 ****        33.2500  44.2500  44.7500 Du        
   9421 ****        33.2500  44.2500  45.0000 Du        
   9422 ****        33.2500  44.2500  45.2500 Du        
   9423 ****        33.2500  44.2500  45.5000 Du        
   9424 ****        33.2500  44.2500  45.7500 Du        
   9425 ****        33.2500  44.2500  46.0000 Du        
   9426 ****        33.2500  44.2500  46.2500 Du        
   9427 ****        33.2500  44.2500  46.5000 Du        
   9428 ****        33.2500  44.2500  46.7500 Du        
   9429 ****        33.2500  44.2500  47.0000 Du        
   9430 ****        33.2500  44.5000  44.2500 Du        
   9431 ****        33.2500  44.5000  44.5000 Du        
   9432 ****        33.2500  44.5000  44.7500 Du        
   9433 ****        33.2500  44.5000  45.0000 Du        
   9434 ****        33.2500  44.5000  45.2500 Du        
   9435 ****        33.2500  44.5000  45.5000 Du        
   9436 ****        33.2500  44.5000  45.7500 Du        
   9437 ****        33.2500  44.5000  46.0000 Du        
   9438 ****        33.2500  44.5000  46.2500 Du        
   9439 ****        33.2500  44.5000  46.7500 Du        
   9440 ****        33.2500  44.7500  44.2500 Du        
   9441 ****        33.2500  44.7500  44.5000 Du        
   9442 ****        33.2500  44.7500  44.7500 Du        
   9443 ****        33.2500  44.7500  45.0000 Du        
   9444 ****        33.2500  44.7500  45.2500 Du        
   9445 ****        33.2500  44.7500  45.5000 Du        
   9446 ****        33.2500  44.7500  45.7500 Du        
   9447 ****        33.2500  44.7500  46.0000 Du        
   9448 ****        33.2500  44.7500  46.2500 Du        
   9449 ****        33.2500  45.0000  44.2500 Du        
   9450 ****        33.2500  45.0000  44.5000 Du        
   9451 ****        33.2500  45.0000  44.7500 Du        
   9452 ****        33.2500  45.0000  45.0000 Du        
   9453 ****        33.2500  45.0000  45.2500 Du        
   9454 ****        33.2500  45.0000  45.5000 Du        
   9455 ****        33.2500  45.0000  45.7500 Du        
   9456 ****        33.2500  45.0000  46.0000 Du        
   9457 ****        33.2500  45.0000  46.2500 Du        
   9458 ****        33.2500  45.2500  44.0000 Du        
   9459 ****        33.2500  45.2500  44.2500 Du        
   9460 ****        33.2500  45.2500  44.5000 Du        
   9461 ****        33.2500  45.2500  44.7500 Du        
   9462 ****        33.2500  45.2500  45.0000 Du        
   9463 ****        33.2500  45.2500  45.2500 Du        
   9464 ****        33.5000  15.0000  57.0000 Du        
   9465 ****        33.5000  15.0000  57.2500 Du        
   9466 ****        33.5000  15.0000  57.5000 Du        
   9467 ****        33.5000  15.0000  57.7500 Du        
   9468 ****        33.5000  15.2500  57.0000 Du        
   9469 ****        33.5000  15.2500  57.2500 Du        
   9470 ****        33.5000  15.2500  57.5000 Du        
   9471 ****        33.5000  15.2500  57.7500 Du        
   9472 ****        33.5000  15.5000  57.2500 Du        
   9473 ****        33.5000  15.5000  57.5000 Du        
   9474 ****        33.5000  15.5000  57.7500 Du        
   9475 ****        33.5000  15.7500  57.2500 Du        
   9476 ****        33.5000  15.7500  57.5000 Du        
   9477 ****        33.5000  15.7500  57.7500 Du        
   9478 ****        33.5000  15.7500  58.0000 Du        
   9479 ****        33.5000  16.0000  57.2500 Du        
   9480 ****        33.5000  16.0000  57.5000 Du        
   9481 ****        33.5000  16.0000  57.7500 Du        
   9482 ****        33.5000  16.0000  58.0000 Du        
   9483 ****        33.5000  16.2500  57.5000 Du        
   9484 ****        33.5000  16.2500  57.7500 Du        
   9485 ****        33.5000  16.2500  58.0000 Du        
   9486 ****        33.5000  16.5000  57.5000 Du        
   9487 ****        33.5000  16.5000  57.7500 Du        
   9488 ****        33.5000  16.5000  58.0000 Du        
   9489 ****        33.5000  16.5000  58.2500 Du        
   9490 ****        33.5000  16.7500  57.5000 Du        
   9491 ****        33.5000  16.7500  57.7500 Du        
   9492 ****        33.5000  16.7500  58.0000 Du        
   9493 ****        33.5000  16.7500  58.2500 Du        
   9494 ****        33.5000  17.0000  57.7500 Du        
   9495 ****        33.5000  17.0000  58.0000 Du        
   9496 ****        33.5000  17.0000  58.2500 Du        
   9497 ****        33.5000  17.0000  58.5000 Du        
   9498 ****        33.5000  17.2500  57.7500 Du        
   9499 ****        33.5000  17.2500  58.0000 Du        
   9500 ****        33.5000  17.2500  58.2500 Du        
   9501 ****        33.5000  17.2500  58.5000 Du        
   9502 ****        33.5000  17.5000  57.7500 Du        
   9503 ****        33.5000  17.5000  58.0000 Du        
   9504 ****        33.5000  17.5000  58.2500 Du        
   9505 ****        33.5000  17.5000  58.5000 Du        
   9506 ****        33.5000  17.5000  58.7500 Du        
   9507 ****        33.5000  17.7500  57.7500 Du        
   9508 ****        33.5000  17.7500  58.0000 Du        
   9509 ****        33.5000  17.7500  58.2500 Du        
   9510 ****        33.5000  17.7500  58.5000 Du        
   9511 ****        33.5000  17.7500  58.7500 Du        
   9512 ****        33.5000  17.7500  59.0000 Du        
   9513 ****        33.5000  18.0000  57.5000 Du        
   9514 ****        33.5000  18.0000  57.7500 Du        
   9515 ****        33.5000  18.0000  58.0000 Du        
   9516 ****        33.5000  18.0000  58.2500 Du        
   9517 ****        33.5000  18.0000  58.5000 Du        
   9518 ****        33.5000  18.0000  58.7500 Du        
   9519 ****        33.5000  18.0000  59.0000 Du        
   9520 ****        33.5000  18.0000  59.2500 Du        
   9521 ****        33.5000  18.2500  57.5000 Du        
   9522 ****        33.5000  18.2500  57.7500 Du        
   9523 ****        33.5000  18.2500  58.0000 Du        
   9524 ****        33.5000  18.2500  58.2500 Du        
   9525 ****        33.5000  18.2500  58.5000 Du        
   9526 ****        33.5000  18.2500  58.7500 Du        
   9527 ****        33.5000  18.2500  59.0000 Du        
   9528 ****        33.5000  18.2500  59.2500 Du        
   9529 ****        33.5000  18.2500  59.5000 Du        
   9530 ****        33.5000  18.5000  57.5000 Du        
   9531 ****        33.5000  18.5000  57.7500 Du        
   9532 ****        33.5000  18.5000  58.0000 Du        
   9533 ****        33.5000  18.5000  58.2500 Du        
   9534 ****        33.5000  18.5000  58.5000 Du        
   9535 ****        33.5000  18.5000  58.7500 Du        
   9536 ****        33.5000  18.5000  59.0000 Du        
   9537 ****        33.5000  18.5000  59.2500 Du        
   9538 ****        33.5000  18.5000  59.5000 Du        
   9539 ****        33.5000  18.5000  59.7500 Du        
   9540 ****        33.5000  18.7500  57.5000 Du        
   9541 ****        33.5000  18.7500  57.7500 Du        
   9542 ****        33.5000  18.7500  58.0000 Du        
   9543 ****        33.5000  18.7500  58.2500 Du        
   9544 ****        33.5000  18.7500  58.5000 Du        
   9545 ****        33.5000  18.7500  58.7500 Du        
   9546 ****        33.5000  18.7500  59.0000 Du        
   9547 ****        33.5000  18.7500  59.2500 Du        
   9548 ****        33.5000  18.7500  59.5000 Du        
   9549 ****        33.5000  18.7500  59.7500 Du        
   9550 ****        33.5000  18.7500  60.0000 Du        
   9551 ****        33.5000  19.0000  57.2500 Du        
   9552 ****        33.5000  19.0000  57.5000 Du        
   9553 ****        33.5000  19.0000  57.7500 Du        
   9554 ****        33.5000  19.0000  58.0000 Du        
   9555 ****        33.5000  19.0000  58.2500 Du        
   9556 ****        33.5000  19.0000  58.5000 Du        
   9557 ****        33.5000  19.0000  58.7500 Du        
   9558 ****        33.5000  19.0000  59.0000 Du        
   9559 ****        33.5000  19.0000  59.2500 Du        
   9560 ****        33.5000  19.0000  59.5000 Du        
   9561 ****        33.5000  19.0000  59.7500 Du        
   9562 ****        33.5000  19.0000  60.0000 Du        
   9563 ****        33.5000  19.2500  57.2500 Du        
   9564 ****        33.5000  19.2500  57.5000 Du        
   9565 ****        33.5000  19.2500  57.7500 Du        
   9566 ****        33.5000  19.2500  58.0000 Du        
   9567 ****        33.5000  19.2500  58.2500 Du        
   9568 ****        33.5000  19.2500  58.5000 Du        
   9569 ****        33.5000  19.2500  58.7500 Du        
   9570 ****        33.5000  19.2500  59.0000 Du        
   9571 ****        33.5000  19.2500  59.2500 Du        
   9572 ****        33.5000  19.2500  59.5000 Du        
   9573 ****        33.5000  19.2500  59.7500 Du        
   9574 ****        33.5000  19.2500  60.0000 Du        
   9575 ****        33.5000  19.5000  57.5000 Du        
   9576 ****        33.5000  19.5000  57.7500 Du        
   9577 ****        33.5000  19.5000  58.0000 Du        
   9578 ****        33.5000  19.5000  58.2500 Du        
   9579 ****        33.5000  19.5000  58.5000 Du        
   9580 ****        33.5000  19.5000  58.7500 Du        
   9581 ****        33.5000  19.5000  59.0000 Du        
   9582 ****        33.5000  19.5000  59.2500 Du        
   9583 ****        33.5000  19.5000  59.5000 Du        
   9584 ****        33.5000  19.5000  59.7500 Du        
   9585 ****        33.5000  19.7500  57.5000 Du        
   9586 ****        33.5000  19.7500  57.7500 Du        
   9587 ****        33.5000  19.7500  58.0000 Du        
   9588 ****        33.5000  19.7500  58.2500 Du        
   9589 ****        33.5000  19.7500  58.5000 Du        
   9590 ****        33.5000  19.7500  58.7500 Du        
   9591 ****        33.5000  19.7500  59.0000 Du        
   9592 ****        33.5000  19.7500  59.2500 Du        
   9593 ****        33.5000  19.7500  59.5000 Du        
   9594 ****        33.5000  19.7500  59.7500 Du        
   9595 ****        33.5000  20.0000  57.7500 Du        
   9596 ****        33.5000  20.0000  58.0000 Du        
   9597 ****        33.5000  20.0000  58.2500 Du        
   9598 ****        33.5000  20.0000  58.5000 Du        
   9599 ****        33.5000  20.0000  58.7500 Du        
   9600 ****        33.5000  20.0000  59.0000 Du        
   9601 ****        33.5000  20.0000  59.2500 Du        
   9602 ****        33.5000  20.0000  59.5000 Du        
   9603 ****        33.5000  20.0000  59.7500 Du        
   9604 ****        33.5000  20.2500  58.0000 Du        
   9605 ****        33.5000  20.2500  58.2500 Du        
   9606 ****        33.5000  20.2500  58.5000 Du        
   9607 ****        33.5000  20.2500  58.7500 Du        
   9608 ****        33.5000  20.2500  59.0000 Du        
   9609 ****        33.5000  20.2500  59.2500 Du        
   9610 ****        33.5000  20.5000  58.2500 Du        
   9611 ****        33.5000  20.5000  58.5000 Du        
   9612 ****        33.5000  20.5000  58.7500 Du        
   9613 ****        33.5000  20.5000  59.0000 Du        
   9614 ****        33.5000  20.5000  59.2500 Du        
   9615 ****        33.5000  20.7500  58.2500 Du        
   9616 ****        33.5000  20.7500  58.5000 Du        
   9617 ****        33.5000  20.7500  58.7500 Du        
   9618 ****        33.5000  20.7500  59.0000 Du        
   9619 ****        33.5000  20.7500  59.2500 Du        
   9620 ****        33.5000  21.0000  58.7500 Du        
   9621 ****        33.5000  21.0000  59.0000 Du        
   9622 ****        33.5000  21.0000  59.2500 Du        
   9623 ****        33.5000  30.2500  53.0000 Du        
   9624 ****        33.5000  30.2500  53.2500 Du        
   9625 ****        33.5000  30.2500  53.5000 Du        
   9626 ****        33.5000  30.5000  53.2500 Du        
   9627 ****        33.5000  30.5000  53.5000 Du        
   9628 ****        33.5000  30.5000  53.7500 Du        
   9629 ****        33.5000  30.5000  54.0000 Du        
   9630 ****        33.5000  30.7500  53.2500 Du        
   9631 ****        33.5000  30.7500  53.5000 Du        
   9632 ****        33.5000  30.7500  53.7500 Du        
   9633 ****        33.5000  30.7500  54.0000 Du        
   9634 ****        33.5000  30.7500  54.2500 Du        
   9635 ****        33.5000  31.0000  53.2500 Du        
   9636 ****        33.5000  31.0000  53.5000 Du        
   9637 ****        33.5000  31.0000  53.7500 Du        
   9638 ****        33.5000  31.0000  54.0000 Du        
   9639 ****        33.5000  31.0000  54.2500 Du        
   9640 ****        33.5000  31.0000  54.5000 Du        
   9641 ****        33.5000  31.0000  54.7500 Du        
   9642 ****        33.5000  31.0000  55.0000 Du        
   9643 ****        33.5000  31.2500  53.2500 Du        
   9644 ****        33.5000  31.2500  53.5000 Du        
   9645 ****        33.5000  31.2500  53.7500 Du        
   9646 ****        33.5000  31.2500  54.0000 Du        
   9647 ****        33.5000  31.2500  54.2500 Du        
   9648 ****        33.5000  31.2500  54.5000 Du        
   9649 ****        33.5000  31.2500  54.7500 Du        
   9650 ****        33.5000  31.2500  55.0000 Du        
   9651 ****        33.5000  31.2500  55.2500 Du        
   9652 ****        33.5000  31.5000  53.2500 Du        
   9653 ****        33.5000  31.5000  53.5000 Du        
   9654 ****        33.5000  31.5000  53.7500 Du        
   9655 ****        33.5000  31.5000  54.0000 Du        
   9656 ****        33.5000  31.5000  54.2500 Du        
   9657 ****        33.5000  31.5000  54.5000 Du        
   9658 ****        33.5000  31.5000  54.7500 Du        
   9659 ****        33.5000  31.5000  55.0000 Du        
   9660 ****        33.5000  31.5000  55.2500 Du        
   9661 ****        33.5000  31.7500  53.0000 Du        
   9662 ****        33.5000  31.7500  53.2500 Du        
   9663 ****        33.5000  31.7500  53.5000 Du        
   9664 ****        33.5000  31.7500  53.7500 Du        
   9665 ****        33.5000  31.7500  54.0000 Du        
   9666 ****        33.5000  31.7500  54.2500 Du        
   9667 ****        33.5000  31.7500  54.5000 Du        
   9668 ****        33.5000  31.7500  54.7500 Du        
   9669 ****        33.5000  31.7500  55.0000 Du        
   9670 ****        33.5000  31.7500  55.2500 Du        
   9671 ****        33.5000  32.0000  53.0000 Du        
   9672 ****        33.5000  32.0000  53.2500 Du        
   9673 ****        33.5000  32.0000  53.5000 Du        
   9674 ****        33.5000  32.0000  53.7500 Du        
   9675 ****        33.5000  32.0000  54.0000 Du        
   9676 ****        33.5000  32.0000  54.2500 Du        
   9677 ****        33.5000  32.0000  54.5000 Du        
   9678 ****        33.5000  32.0000  54.7500 Du        
   9679 ****        33.5000  32.0000  55.0000 Du        
   9680 ****        33.5000  32.2500  53.2500 Du        
   9681 ****        33.5000  32.2500  53.5000 Du        
   9682 ****        33.5000  32.2500  53.7500 Du        
   9683 ****        33.5000  32.2500  54.0000 Du        
   9684 ****        33.5000  36.5000  58.5000 Du        
   9685 ****        33.5000  36.5000  58.7500 Du        
   9686 ****        33.5000  36.5000  59.0000 Du        
   9687 ****        33.5000  36.5000  59.2500 Du        
   9688 ****        33.5000  36.7500  58.2500 Du        
   9689 ****        33.5000  36.7500  58.5000 Du        
   9690 ****        33.5000  36.7500  58.7500 Du        
   9691 ****        33.5000  36.7500  59.0000 Du        
   9692 ****        33.5000  36.7500  59.2500 Du        
   9693 ****        33.5000  37.0000  58.5000 Du        
   9694 ****        33.5000  37.0000  58.7500 Du        
   9695 ****        33.5000  37.0000  59.0000 Du        
   9696 ****        33.5000  37.0000  59.2500 Du        
   9697 ****        33.5000  37.2500  58.5000 Du        
   9698 ****        33.5000  37.2500  58.7500 Du        
   9699 ****        33.5000  37.2500  59.0000 Du        
   9700 ****        33.5000  42.2500  45.0000 Du        
   9701 ****        33.5000  42.5000  44.7500 Du        
   9702 ****        33.5000  42.5000  45.0000 Du        
   9703 ****        33.5000  42.5000  45.2500 Du        
   9704 ****        33.5000  42.5000  45.5000 Du        
   9705 ****        33.5000  42.7500  44.7500 Du        
   9706 ****        33.5000  42.7500  45.0000 Du        
   9707 ****        33.5000  42.7500  45.2500 Du        
   9708 ****        33.5000  42.7500  45.5000 Du        
   9709 ****        33.5000  42.7500  45.7500 Du        
   9710 ****        33.5000  42.7500  46.0000 Du        
   9711 ****        33.5000  42.7500  46.2500 Du        
   9712 ****        33.5000  42.7500  46.5000 Du        
   9713 ****        33.5000  42.7500  46.7500 Du        
   9714 ****        33.5000  42.7500  47.0000 Du        
   9715 ****        33.5000  42.7500  47.2500 Du        
   9716 ****        33.5000  42.7500  47.5000 Du        
   9717 ****        33.5000  43.0000  44.7500 Du        
   9718 ****        33.5000  43.0000  45.0000 Du        
   9719 ****        33.5000  43.0000  45.2500 Du        
   9720 ****        33.5000  43.0000  45.5000 Du        
   9721 ****        33.5000  43.0000  45.7500 Du        
   9722 ****        33.5000  43.0000  46.0000 Du        
   9723 ****        33.5000  43.0000  46.2500 Du        
   9724 ****        33.5000  43.0000  46.5000 Du        
   9725 ****        33.5000  43.0000  46.7500 Du        
   9726 ****        33.5000  43.0000  47.0000 Du        
   9727 ****        33.5000  43.0000  47.2500 Du        
   9728 ****        33.5000  43.0000  47.5000 Du        
   9729 ****        33.5000  43.2500  44.7500 Du        
   9730 ****        33.5000  43.2500  45.0000 Du        
   9731 ****        33.5000  43.2500  45.2500 Du        
   9732 ****        33.5000  43.2500  45.5000 Du        
   9733 ****        33.5000  43.2500  45.7500 Du        
   9734 ****        33.5000  43.2500  46.0000 Du        
   9735 ****        33.5000  43.2500  46.2500 Du        
   9736 ****        33.5000  43.2500  46.5000 Du        
   9737 ****        33.5000  43.2500  46.7500 Du        
   9738 ****        33.5000  43.2500  47.0000 Du        
   9739 ****        33.5000  43.2500  47.2500 Du        
   9740 ****        33.5000  43.2500  47.5000 Du        
   9741 ****        33.5000  43.5000  44.7500 Du        
   9742 ****        33.5000  43.5000  45.0000 Du        
   9743 ****        33.5000  43.5000  45.2500 Du        
   9744 ****        33.5000  43.5000  45.5000 Du        
   9745 ****        33.5000  43.5000  45.7500 Du        
   9746 ****        33.5000  43.5000  46.0000 Du        
   9747 ****        33.5000  43.5000  46.2500 Du        
   9748 ****        33.5000  43.5000  46.5000 Du        
   9749 ****        33.5000  43.5000  46.7500 Du        
   9750 ****        33.5000  43.5000  47.0000 Du        
   9751 ****        33.5000  43.5000  47.2500 Du        
   9752 ****        33.5000  43.7500  44.5000 Du        
   9753 ****        33.5000  43.7500  44.7500 Du        
   9754 ****        33.5000  43.7500  45.0000 Du        
   9755 ****        33.5000  43.7500  45.2500 Du        
   9756 ****        33.5000  43.7500  45.5000 Du        
   9757 ****        33.5000  43.7500  45.7500 Du        
   9758 ****        33.5000  43.7500  46.0000 Du        
   9759 ****        33.5000  43.7500  46.2500 Du        
   9760 ****        33.5000  43.7500  46.5000 Du        
   9761 ****        33.5000  43.7500  46.7500 Du        
   9762 ****        33.5000  43.7500  47.0000 Du        
   9763 ****        33.5000  43.7500  47.2500 Du        
   9764 ****        33.5000  44.0000  44.5000 Du        
   9765 ****        33.5000  44.0000  44.7500 Du        
   9766 ****        33.5000  44.0000  45.0000 Du        
   9767 ****        33.5000  44.0000  45.2500 Du        
   9768 ****        33.5000  44.0000  45.5000 Du        
   9769 ****        33.5000  44.0000  45.7500 Du        
   9770 ****        33.5000  44.0000  46.0000 Du        
   9771 ****        33.5000  44.0000  46.2500 Du        
   9772 ****        33.5000  44.0000  46.5000 Du        
   9773 ****        33.5000  44.0000  46.7500 Du        
   9774 ****        33.5000  44.0000  47.0000 Du        
   9775 ****        33.5000  44.2500  44.5000 Du        
   9776 ****        33.5000  44.2500  44.7500 Du        
   9777 ****        33.5000  44.2500  45.0000 Du        
   9778 ****        33.5000  44.2500  45.2500 Du        
   9779 ****        33.5000  44.2500  45.5000 Du        
   9780 ****        33.5000  44.2500  45.7500 Du        
   9781 ****        33.5000  44.2500  46.0000 Du        
   9782 ****        33.5000  44.2500  46.2500 Du        
   9783 ****        33.5000  44.2500  46.5000 Du        
   9784 ****        33.5000  44.2500  46.7500 Du        
   9785 ****        33.5000  44.2500  47.0000 Du        
   9786 ****        33.5000  44.5000  44.7500 Du        
   9787 ****        33.5000  44.5000  45.0000 Du        
   9788 ****        33.5000  44.5000  45.2500 Du        
   9789 ****        33.5000  44.5000  45.5000 Du        
   9790 ****        33.5000  44.5000  45.7500 Du        
   9791 ****        33.5000  44.5000  46.0000 Du        
   9792 ****        33.5000  44.5000  46.2500 Du        
   9793 ****        33.5000  44.7500  44.7500 Du        
   9794 ****        33.5000  44.7500  45.0000 Du        
   9795 ****        33.5000  44.7500  45.2500 Du        
   9796 ****        33.5000  44.7500  45.5000 Du        
   9797 ****        33.5000  44.7500  46.0000 Du        
   9798 ****        33.5000  45.0000  44.7500 Du        
   9799 ****        33.5000  45.0000  45.0000 Du        
   9800 ****        33.5000  45.2500  44.5000 Du        
   9801 ****        33.5000  45.2500  44.7500 Du        
   9802 ****        33.7500  15.0000  57.0000 Du        
   9803 ****        33.7500  15.0000  57.2500 Du        
   9804 ****        33.7500  15.0000  57.5000 Du        
   9805 ****        33.7500  15.0000  57.7500 Du        
   9806 ****        33.7500  15.2500  57.2500 Du        
   9807 ****        33.7500  15.2500  57.5000 Du        
   9808 ****        33.7500  15.2500  57.7500 Du        
   9809 ****        33.7500  15.5000  57.2500 Du        
   9810 ****        33.7500  15.5000  57.5000 Du        
   9811 ****        33.7500  15.5000  57.7500 Du        
   9812 ****        33.7500  15.5000  58.0000 Du        
   9813 ****        33.7500  15.7500  57.2500 Du        
   9814 ****        33.7500  15.7500  57.5000 Du        
   9815 ****        33.7500  15.7500  57.7500 Du        
   9816 ****        33.7500  15.7500  58.0000 Du        
   9817 ****        33.7500  16.0000  57.5000 Du        
   9818 ****        33.7500  16.0000  57.7500 Du        
   9819 ****        33.7500  16.0000  58.0000 Du        
   9820 ****        33.7500  16.0000  58.2500 Du        
   9821 ****        33.7500  16.2500  57.5000 Du        
   9822 ****        33.7500  16.2500  57.7500 Du        
   9823 ****        33.7500  16.2500  58.0000 Du        
   9824 ****        33.7500  16.2500  58.2500 Du        
   9825 ****        33.7500  16.5000  57.5000 Du        
   9826 ****        33.7500  16.5000  57.7500 Du        
   9827 ****        33.7500  16.5000  58.0000 Du        
   9828 ****        33.7500  16.5000  58.2500 Du        
   9829 ****        33.7500  16.7500  57.5000 Du        
   9830 ****        33.7500  16.7500  57.7500 Du        
   9831 ****        33.7500  16.7500  58.0000 Du        
   9832 ****        33.7500  16.7500  58.2500 Du        
   9833 ****        33.7500  16.7500  58.5000 Du        
   9834 ****        33.7500  17.0000  57.7500 Du        
   9835 ****        33.7500  17.0000  58.0000 Du        
   9836 ****        33.7500  17.0000  58.2500 Du        
   9837 ****        33.7500  17.0000  58.5000 Du        
   9838 ****        33.7500  17.2500  57.7500 Du        
   9839 ****        33.7500  17.2500  58.0000 Du        
   9840 ****        33.7500  17.2500  58.2500 Du        
   9841 ****        33.7500  17.2500  58.5000 Du        
   9842 ****        33.7500  17.2500  58.7500 Du        
   9843 ****        33.7500  17.5000  57.7500 Du        
   9844 ****        33.7500  17.5000  58.0000 Du        
   9845 ****        33.7500  17.5000  58.2500 Du        
   9846 ****        33.7500  17.5000  58.5000 Du        
   9847 ****        33.7500  17.5000  58.7500 Du        
   9848 ****        33.7500  17.5000  59.0000 Du        
   9849 ****        33.7500  17.7500  57.7500 Du        
   9850 ****        33.7500  17.7500  58.0000 Du        
   9851 ****        33.7500  17.7500  58.2500 Du        
   9852 ****        33.7500  17.7500  58.5000 Du        
   9853 ****        33.7500  17.7500  58.7500 Du        
   9854 ****        33.7500  17.7500  59.0000 Du        
   9855 ****        33.7500  17.7500  59.2500 Du        
   9856 ****        33.7500  18.0000  57.7500 Du        
   9857 ****        33.7500  18.0000  58.0000 Du        
   9858 ****        33.7500  18.0000  58.2500 Du        
   9859 ****        33.7500  18.0000  58.5000 Du        
   9860 ****        33.7500  18.0000  58.7500 Du        
   9861 ****        33.7500  18.0000  59.0000 Du        
   9862 ****        33.7500  18.0000  59.2500 Du        
   9863 ****        33.7500  18.2500  57.7500 Du        
   9864 ****        33.7500  18.2500  58.0000 Du        
   9865 ****        33.7500  18.2500  58.2500 Du        
   9866 ****        33.7500  18.2500  58.5000 Du        
   9867 ****        33.7500  18.2500  58.7500 Du        
   9868 ****        33.7500  18.2500  59.0000 Du        
   9869 ****        33.7500  18.2500  59.2500 Du        
   9870 ****        33.7500  18.2500  59.5000 Du        
   9871 ****        33.7500  18.2500  59.7500 Du        
   9872 ****        33.7500  18.5000  57.5000 Du        
   9873 ****        33.7500  18.5000  57.7500 Du        
   9874 ****        33.7500  18.5000  58.0000 Du        
   9875 ****        33.7500  18.5000  58.2500 Du        
   9876 ****        33.7500  18.5000  58.5000 Du        
   9877 ****        33.7500  18.5000  58.7500 Du        
   9878 ****        33.7500  18.5000  59.0000 Du        
   9879 ****        33.7500  18.5000  59.2500 Du        
   9880 ****        33.7500  18.5000  59.5000 Du        
   9881 ****        33.7500  18.5000  59.7500 Du        
   9882 ****        33.7500  18.5000  60.0000 Du        
   9883 ****        33.7500  18.7500  57.5000 Du        
   9884 ****        33.7500  18.7500  57.7500 Du        
   9885 ****        33.7500  18.7500  58.0000 Du        
   9886 ****        33.7500  18.7500  58.2500 Du        
   9887 ****        33.7500  18.7500  58.5000 Du        
   9888 ****        33.7500  18.7500  58.7500 Du        
   9889 ****        33.7500  18.7500  59.0000 Du        
   9890 ****        33.7500  18.7500  59.2500 Du        
   9891 ****        33.7500  18.7500  59.5000 Du        
   9892 ****        33.7500  18.7500  59.7500 Du        
   9893 ****        33.7500  18.7500  60.0000 Du        
   9894 ****        33.7500  19.0000  57.5000 Du        
   9895 ****        33.7500  19.0000  57.7500 Du        
   9896 ****        33.7500  19.0000  58.0000 Du        
   9897 ****        33.7500  19.0000  58.2500 Du        
   9898 ****        33.7500  19.0000  58.5000 Du        
   9899 ****        33.7500  19.0000  58.7500 Du        
   9900 ****        33.7500  19.0000  59.0000 Du        
   9901 ****        33.7500  19.0000  59.2500 Du        
   9902 ****        33.7500  19.0000  59.5000 Du        
   9903 ****        33.7500  19.0000  59.7500 Du        
   9904 ****        33.7500  19.0000  60.0000 Du        
   9905 ****        33.7500  19.2500  57.5000 Du        
   9906 ****        33.7500  19.2500  57.7500 Du        
   9907 ****        33.7500  19.2500  58.0000 Du        
   9908 ****        33.7500  19.2500  58.2500 Du        
   9909 ****        33.7500  19.2500  58.5000 Du        
   9910 ****        33.7500  19.2500  58.7500 Du        
   9911 ****        33.7500  19.2500  59.0000 Du        
   9912 ****        33.7500  19.2500  59.2500 Du        
   9913 ****        33.7500  19.2500  59.5000 Du        
   9914 ****        33.7500  19.2500  59.7500 Du        
   9915 ****        33.7500  19.2500  60.0000 Du        
   9916 ****        33.7500  19.5000  57.5000 Du        
   9917 ****        33.7500  19.5000  57.7500 Du        
   9918 ****        33.7500  19.5000  58.0000 Du        
   9919 ****        33.7500  19.5000  58.2500 Du        
   9920 ****        33.7500  19.5000  58.5000 Du        
   9921 ****        33.7500  19.5000  58.7500 Du        
   9922 ****        33.7500  19.5000  59.0000 Du        
   9923 ****        33.7500  19.5000  59.2500 Du        
   9924 ****        33.7500  19.5000  59.5000 Du        
   9925 ****        33.7500  19.5000  59.7500 Du        
   9926 ****        33.7500  19.5000  60.0000 Du        
   9927 ****        33.7500  19.7500  57.5000 Du        
   9928 ****        33.7500  19.7500  57.7500 Du        
   9929 ****        33.7500  19.7500  58.0000 Du        
   9930 ****        33.7500  19.7500  58.2500 Du        
   9931 ****        33.7500  19.7500  58.5000 Du        
   9932 ****        33.7500  19.7500  58.7500 Du        
   9933 ****        33.7500  19.7500  59.0000 Du        
   9934 ****        33.7500  19.7500  59.2500 Du        
   9935 ****        33.7500  19.7500  59.5000 Du        
   9936 ****        33.7500  19.7500  59.7500 Du        
   9937 ****        33.7500  20.0000  57.7500 Du        
   9938 ****        33.7500  20.0000  58.0000 Du        
   9939 ****        33.7500  20.0000  58.2500 Du        
   9940 ****        33.7500  20.0000  58.5000 Du        
   9941 ****        33.7500  20.0000  58.7500 Du        
   9942 ****        33.7500  20.0000  59.0000 Du        
   9943 ****        33.7500  20.0000  59.2500 Du        
   9944 ****        33.7500  20.0000  59.5000 Du        
   9945 ****        33.7500  20.0000  59.7500 Du        
   9946 ****        33.7500  20.2500  58.0000 Du        
   9947 ****        33.7500  20.2500  58.2500 Du        
   9948 ****        33.7500  20.2500  58.5000 Du        
   9949 ****        33.7500  20.2500  58.7500 Du        
   9950 ****        33.7500  20.2500  59.0000 Du        
   9951 ****        33.7500  20.2500  59.2500 Du        
   9952 ****        33.7500  20.2500  59.5000 Du        
   9953 ****        33.7500  20.2500  59.7500 Du        
   9954 ****        33.7500  20.5000  58.0000 Du        
   9955 ****        33.7500  20.5000  58.2500 Du        
   9956 ****        33.7500  20.5000  58.5000 Du        
   9957 ****        33.7500  20.5000  58.7500 Du        
   9958 ****        33.7500  20.5000  59.0000 Du        
   9959 ****        33.7500  20.5000  59.2500 Du        
   9960 ****        33.7500  20.7500  58.2500 Du        
   9961 ****        33.7500  20.7500  58.5000 Du        
   9962 ****        33.7500  20.7500  58.7500 Du        
   9963 ****        33.7500  20.7500  59.0000 Du        
   9964 ****        33.7500  20.7500  59.2500 Du        
   9965 ****        33.7500  21.0000  58.2500 Du        
   9966 ****        33.7500  21.0000  58.5000 Du        
   9967 ****        33.7500  21.0000  58.7500 Du        
   9968 ****        33.7500  21.0000  59.0000 Du        
   9969 ****        33.7500  21.0000  59.2500 Du        
   9970 ****        33.7500  21.2500  58.5000 Du        
   9971 ****        33.7500  30.0000  53.0000 Du        
   9972 ****        33.7500  30.0000  53.2500 Du        
   9973 ****        33.7500  30.2500  53.0000 Du        
   9974 ****        33.7500  30.2500  53.2500 Du        
   9975 ****        33.7500  30.2500  53.5000 Du        
   9976 ****        33.7500  30.5000  53.0000 Du        
   9977 ****        33.7500  30.5000  53.2500 Du        
   9978 ****        33.7500  30.5000  53.5000 Du        
   9979 ****        33.7500  30.5000  53.7500 Du        
   9980 ****        33.7500  30.7500  53.0000 Du        
   9981 ****        33.7500  30.7500  53.2500 Du        
   9982 ****        33.7500  30.7500  53.5000 Du        
   9983 ****        33.7500  30.7500  53.7500 Du        
   9984 ****        33.7500  30.7500  54.0000 Du        
   9985 ****        33.7500  30.7500  54.2500 Du        
   9986 ****        33.7500  31.0000  53.0000 Du        
   9987 ****        33.7500  31.0000  53.2500 Du        
   9988 ****        33.7500  31.0000  53.5000 Du        
   9989 ****        33.7500  31.0000  53.7500 Du        
   9990 ****        33.7500  31.0000  54.0000 Du        
   9991 ****        33.7500  31.0000  54.2500 Du        
   9992 ****        33.7500  31.0000  54.5000 Du        
   9993 ****        33.7500  31.0000  54.7500 Du        
   9994 ****        33.7500  31.2500  53.0000 Du        
   9995 ****        33.7500  31.2500  53.2500 Du        
   9996 ****        33.7500  31.2500  53.5000 Du        
   9997 ****        33.7500  31.2500  53.7500 Du        
   9998 ****        33.7500  31.2500  54.0000 Du        
   9999 ****        33.7500  31.2500  54.2500 Du        
  10000 ****        33.7500  31.2500  54.5000 Du        
  10001 ****        33.7500  31.2500  54.7500 Du        
  10002 ****        33.7500  31.2500  55.0000 Du        
  10003 ****        33.7500  31.2500  55.2500 Du        
  10004 ****        33.7500  31.5000  53.0000 Du        
  10005 ****        33.7500  31.5000  53.2500 Du        
  10006 ****        33.7500  31.5000  53.5000 Du        
  10007 ****        33.7500  31.5000  53.7500 Du        
  10008 ****        33.7500  31.5000  54.0000 Du        
  10009 ****        33.7500  31.5000  54.2500 Du        
  10010 ****        33.7500  31.5000  54.5000 Du        
  10011 ****        33.7500  31.5000  54.7500 Du        
  10012 ****        33.7500  31.5000  55.0000 Du        
  10013 ****        33.7500  31.5000  55.2500 Du        
  10014 ****        33.7500  31.7500  53.0000 Du        
  10015 ****        33.7500  31.7500  53.2500 Du        
  10016 ****        33.7500  31.7500  53.5000 Du        
  10017 ****        33.7500  31.7500  53.7500 Du        
  10018 ****        33.7500  31.7500  54.0000 Du        
  10019 ****        33.7500  31.7500  54.2500 Du        
  10020 ****        33.7500  31.7500  54.5000 Du        
  10021 ****        33.7500  31.7500  54.7500 Du        
  10022 ****        33.7500  31.7500  55.0000 Du        
  10023 ****        33.7500  31.7500  55.2500 Du        
  10024 ****        33.7500  32.0000  52.7500 Du        
  10025 ****        33.7500  32.0000  53.0000 Du        
  10026 ****        33.7500  32.0000  53.2500 Du        
  10027 ****        33.7500  32.0000  53.5000 Du        
  10028 ****        33.7500  32.0000  53.7500 Du        
  10029 ****        33.7500  32.0000  54.0000 Du        
  10030 ****        33.7500  32.0000  54.2500 Du        
  10031 ****        33.7500  32.0000  54.5000 Du        
  10032 ****        33.7500  32.0000  54.7500 Du        
  10033 ****        33.7500  32.0000  55.0000 Du        
  10034 ****        33.7500  32.0000  55.2500 Du        
  10035 ****        33.7500  32.2500  53.0000 Du        
  10036 ****        33.7500  32.2500  53.2500 Du        
  10037 ****        33.7500  32.2500  53.5000 Du        
  10038 ****        33.7500  32.2500  53.7500 Du        
  10039 ****        33.7500  32.2500  54.0000 Du        
  10040 ****        33.7500  32.2500  54.2500 Du        
  10041 ****        33.7500  32.2500  54.5000 Du        
  10042 ****        33.7500  36.5000  58.5000 Du        
  10043 ****        33.7500  36.5000  58.7500 Du        
  10044 ****        33.7500  36.5000  59.0000 Du        
  10045 ****        33.7500  36.7500  58.2500 Du        
  10046 ****        33.7500  36.7500  58.5000 Du        
  10047 ****        33.7500  36.7500  58.7500 Du        
  10048 ****        33.7500  36.7500  59.0000 Du        
  10049 ****        33.7500  36.7500  59.2500 Du        
  10050 ****        33.7500  37.0000  58.2500 Du        
  10051 ****        33.7500  37.0000  58.5000 Du        
  10052 ****        33.7500  37.0000  58.7500 Du        
  10053 ****        33.7500  37.0000  59.0000 Du        
  10054 ****        33.7500  37.0000  59.2500 Du        
  10055 ****        33.7500  37.2500  58.2500 Du        
  10056 ****        33.7500  37.2500  58.5000 Du        
  10057 ****        33.7500  37.2500  58.7500 Du        
  10058 ****        33.7500  37.2500  59.0000 Du        
  10059 ****        33.7500  37.2500  59.2500 Du        
  10060 ****        33.7500  37.5000  58.5000 Du        
  10061 ****        33.7500  37.5000  58.7500 Du        
  10062 ****        33.7500  37.5000  59.0000 Du        
  10063 ****        33.7500  42.2500  44.7500 Du        
  10064 ****        33.7500  42.2500  45.0000 Du        
  10065 ****        33.7500  42.2500  45.2500 Du        
  10066 ****        33.7500  42.5000  44.7500 Du        
  10067 ****        33.7500  42.5000  45.0000 Du        
  10068 ****        33.7500  42.5000  45.2500 Du        
  10069 ****        33.7500  42.5000  45.5000 Du        
  10070 ****        33.7500  42.5000  45.7500 Du        
  10071 ****        33.7500  42.5000  46.0000 Du        
  10072 ****        33.7500  42.5000  47.2500 Du        
  10073 ****        33.7500  42.7500  44.7500 Du        
  10074 ****        33.7500  42.7500  45.0000 Du        
  10075 ****        33.7500  42.7500  45.2500 Du        
  10076 ****        33.7500  42.7500  45.5000 Du        
  10077 ****        33.7500  42.7500  45.7500 Du        
  10078 ****        33.7500  42.7500  46.0000 Du        
  10079 ****        33.7500  42.7500  46.2500 Du        
  10080 ****        33.7500  42.7500  46.5000 Du        
  10081 ****        33.7500  42.7500  46.7500 Du        
  10082 ****        33.7500  42.7500  47.0000 Du        
  10083 ****        33.7500  42.7500  47.2500 Du        
  10084 ****        33.7500  42.7500  47.5000 Du        
  10085 ****        33.7500  42.7500  47.7500 Du        
  10086 ****        33.7500  43.0000  44.7500 Du        
  10087 ****        33.7500  43.0000  45.0000 Du        
  10088 ****        33.7500  43.0000  45.2500 Du        
  10089 ****        33.7500  43.0000  45.5000 Du        
  10090 ****        33.7500  43.0000  45.7500 Du        
  10091 ****        33.7500  43.0000  46.0000 Du        
  10092 ****        33.7500  43.0000  46.2500 Du        
  10093 ****        33.7500  43.0000  46.5000 Du        
  10094 ****        33.7500  43.0000  46.7500 Du        
  10095 ****        33.7500  43.0000  47.0000 Du        
  10096 ****        33.7500  43.0000  47.2500 Du        
  10097 ****        33.7500  43.0000  47.5000 Du        
  10098 ****        33.7500  43.0000  47.7500 Du        
  10099 ****        33.7500  43.2500  44.5000 Du        
  10100 ****        33.7500  43.2500  44.7500 Du        
  10101 ****        33.7500  43.2500  45.0000 Du        
  10102 ****        33.7500  43.2500  45.2500 Du        
  10103 ****        33.7500  43.2500  45.5000 Du        
  10104 ****        33.7500  43.2500  45.7500 Du        
  10105 ****        33.7500  43.2500  46.0000 Du        
  10106 ****        33.7500  43.2500  46.2500 Du        
  10107 ****        33.7500  43.2500  46.5000 Du        
  10108 ****        33.7500  43.2500  46.7500 Du        
  10109 ****        33.7500  43.2500  47.0000 Du        
  10110 ****        33.7500  43.2500  47.2500 Du        
  10111 ****        33.7500  43.2500  47.5000 Du        
  10112 ****        33.7500  43.5000  44.7500 Du        
  10113 ****        33.7500  43.5000  45.0000 Du        
  10114 ****        33.7500  43.5000  45.2500 Du        
  10115 ****        33.7500  43.5000  45.5000 Du        
  10116 ****        33.7500  43.5000  45.7500 Du        
  10117 ****        33.7500  43.5000  46.0000 Du        
  10118 ****        33.7500  43.5000  46.2500 Du        
  10119 ****        33.7500  43.5000  46.5000 Du        
  10120 ****        33.7500  43.5000  46.7500 Du        
  10121 ****        33.7500  43.5000  47.0000 Du        
  10122 ****        33.7500  43.5000  47.2500 Du        
  10123 ****        33.7500  43.7500  44.7500 Du        
  10124 ****        33.7500  43.7500  45.0000 Du        
  10125 ****        33.7500  43.7500  45.2500 Du        
  10126 ****        33.7500  43.7500  45.5000 Du        
  10127 ****        33.7500  43.7500  45.7500 Du        
  10128 ****        33.7500  43.7500  46.0000 Du        
  10129 ****        33.7500  43.7500  46.2500 Du        
  10130 ****        33.7500  43.7500  46.5000 Du        
  10131 ****        33.7500  43.7500  46.7500 Du        
  10132 ****        33.7500  43.7500  47.0000 Du        
  10133 ****        33.7500  43.7500  47.2500 Du        
  10134 ****        33.7500  44.0000  44.5000 Du        
  10135 ****        33.7500  44.0000  44.7500 Du        
  10136 ****        33.7500  44.0000  45.0000 Du        
  10137 ****        33.7500  44.0000  45.2500 Du        
  10138 ****        33.7500  44.0000  45.5000 Du        
  10139 ****        33.7500  44.0000  45.7500 Du        
  10140 ****        33.7500  44.0000  46.0000 Du        
  10141 ****        33.7500  44.0000  46.2500 Du        
  10142 ****        33.7500  44.0000  46.5000 Du        
  10143 ****        33.7500  44.0000  46.7500 Du        
  10144 ****        33.7500  44.0000  47.0000 Du        
  10145 ****        33.7500  44.0000  47.2500 Du        
  10146 ****        33.7500  44.2500  44.7500 Du        
  10147 ****        33.7500  44.2500  45.0000 Du        
  10148 ****        33.7500  44.2500  45.2500 Du        
  10149 ****        33.7500  44.2500  45.5000 Du        
  10150 ****        33.7500  44.2500  45.7500 Du        
  10151 ****        33.7500  44.2500  46.0000 Du        
  10152 ****        33.7500  44.2500  46.2500 Du        
  10153 ****        33.7500  44.2500  46.5000 Du        
  10154 ****        33.7500  44.2500  46.7500 Du        
  10155 ****        33.7500  44.2500  47.0000 Du        
  10156 ****        33.7500  44.5000  44.7500 Du        
  10157 ****        33.7500  44.5000  45.0000 Du        
  10158 ****        33.7500  44.5000  45.2500 Du        
  10159 ****        33.7500  44.5000  45.5000 Du        
  10160 ****        33.7500  44.5000  45.7500 Du        
  10161 ****        33.7500  44.5000  46.0000 Du        
  10162 ****        33.7500  44.5000  46.2500 Du        
  10163 ****        33.7500  44.7500  44.7500 Du        
  10164 ****        33.7500  44.7500  45.0000 Du        
  10165 ****        33.7500  44.7500  45.2500 Du        
  10166 ****        33.7500  44.7500  45.7500 Du        
  10167 ****        33.7500  44.7500  46.0000 Du        
  10168 ****        33.7500  45.0000  44.7500 Du        
  10169 ****        33.7500  45.0000  45.0000 Du        
  10170 ****        34.0000  15.0000  57.0000 Du        
  10171 ****        34.0000  15.0000  57.2500 Du        
  10172 ****        34.0000  15.0000  57.5000 Du        
  10173 ****        34.0000  15.0000  57.7500 Du        
  10174 ****        34.0000  15.2500  57.2500 Du        
  10175 ****        34.0000  15.2500  57.5000 Du        
  10176 ****        34.0000  15.2500  57.7500 Du        
  10177 ****        34.0000  15.2500  58.0000 Du        
  10178 ****        34.0000  15.5000  57.2500 Du        
  10179 ****        34.0000  15.5000  57.5000 Du        
  10180 ****        34.0000  15.5000  57.7500 Du        
  10181 ****        34.0000  15.5000  58.0000 Du        
  10182 ****        34.0000  15.7500  57.5000 Du        
  10183 ****        34.0000  15.7500  57.7500 Du        
  10184 ****        34.0000  15.7500  58.0000 Du        
  10185 ****        34.0000  15.7500  58.2500 Du        
  10186 ****        34.0000  16.0000  57.5000 Du        
  10187 ****        34.0000  16.0000  57.7500 Du        
  10188 ****        34.0000  16.0000  58.0000 Du        
  10189 ****        34.0000  16.0000  58.2500 Du        
  10190 ****        34.0000  16.2500  57.5000 Du        
  10191 ****        34.0000  16.2500  57.7500 Du        
  10192 ****        34.0000  16.2500  58.0000 Du        
  10193 ****        34.0000  16.2500  58.2500 Du        
  10194 ****        34.0000  16.2500  58.5000 Du        
  10195 ****        34.0000  16.5000  57.7500 Du        
  10196 ****        34.0000  16.5000  58.0000 Du        
  10197 ****        34.0000  16.5000  58.2500 Du        
  10198 ****        34.0000  16.5000  58.5000 Du        
  10199 ****        34.0000  16.7500  57.7500 Du        
  10200 ****        34.0000  16.7500  58.0000 Du        
  10201 ****        34.0000  16.7500  58.2500 Du        
  10202 ****        34.0000  16.7500  58.5000 Du        
  10203 ****        34.0000  16.7500  58.7500 Du        
  10204 ****        34.0000  17.0000  57.7500 Du        
  10205 ****        34.0000  17.0000  58.0000 Du        
  10206 ****        34.0000  17.0000  58.2500 Du        
  10207 ****        34.0000  17.0000  58.5000 Du        
  10208 ****        34.0000  17.0000  58.7500 Du        
  10209 ****        34.0000  17.2500  57.7500 Du        
  10210 ****        34.0000  17.2500  58.0000 Du        
  10211 ****        34.0000  17.2500  58.2500 Du        
  10212 ****        34.0000  17.2500  58.5000 Du        
  10213 ****        34.0000  17.2500  58.7500 Du        
  10214 ****        34.0000  17.2500  59.0000 Du        
  10215 ****        34.0000  17.5000  57.7500 Du        
  10216 ****        34.0000  17.5000  58.0000 Du        
  10217 ****        34.0000  17.5000  58.2500 Du        
  10218 ****        34.0000  17.5000  58.5000 Du        
  10219 ****        34.0000  17.5000  58.7500 Du        
  10220 ****        34.0000  17.5000  59.0000 Du        
  10221 ****        34.0000  17.5000  59.2500 Du        
  10222 ****        34.0000  17.7500  57.7500 Du        
  10223 ****        34.0000  17.7500  58.0000 Du        
  10224 ****        34.0000  17.7500  58.2500 Du        
  10225 ****        34.0000  17.7500  58.5000 Du        
  10226 ****        34.0000  17.7500  58.7500 Du        
  10227 ****        34.0000  17.7500  59.0000 Du        
  10228 ****        34.0000  17.7500  59.2500 Du        
  10229 ****        34.0000  17.7500  59.5000 Du        
  10230 ****        34.0000  18.0000  57.7500 Du        
  10231 ****        34.0000  18.0000  58.0000 Du        
  10232 ****        34.0000  18.0000  58.2500 Du        
  10233 ****        34.0000  18.0000  58.5000 Du        
  10234 ****        34.0000  18.0000  58.7500 Du        
  10235 ****        34.0000  18.0000  59.0000 Du        
  10236 ****        34.0000  18.0000  59.2500 Du        
  10237 ****        34.0000  18.0000  59.5000 Du        
  10238 ****        34.0000  18.0000  59.7500 Du        
  10239 ****        34.0000  18.2500  57.5000 Du        
  10240 ****        34.0000  18.2500  57.7500 Du        
  10241 ****        34.0000  18.2500  58.0000 Du        
  10242 ****        34.0000  18.2500  58.2500 Du        
  10243 ****        34.0000  18.2500  58.5000 Du        
  10244 ****        34.0000  18.2500  58.7500 Du        
  10245 ****        34.0000  18.2500  59.0000 Du        
  10246 ****        34.0000  18.2500  59.2500 Du        
  10247 ****        34.0000  18.2500  59.5000 Du        
  10248 ****        34.0000  18.2500  59.7500 Du        
  10249 ****        34.0000  18.2500  60.0000 Du        
  10250 ****        34.0000  18.5000  57.5000 Du        
  10251 ****        34.0000  18.5000  57.7500 Du        
  10252 ****        34.0000  18.5000  58.0000 Du        
  10253 ****        34.0000  18.5000  58.2500 Du        
  10254 ****        34.0000  18.5000  58.5000 Du        
  10255 ****        34.0000  18.5000  58.7500 Du        
  10256 ****        34.0000  18.5000  59.0000 Du        
  10257 ****        34.0000  18.5000  59.2500 Du        
  10258 ****        34.0000  18.5000  59.5000 Du        
  10259 ****        34.0000  18.5000  59.7500 Du        
  10260 ****        34.0000  18.5000  60.0000 Du        
  10261 ****        34.0000  18.5000  60.2500 Du        
  10262 ****        34.0000  18.7500  57.5000 Du        
  10263 ****        34.0000  18.7500  57.7500 Du        
  10264 ****        34.0000  18.7500  58.0000 Du        
  10265 ****        34.0000  18.7500  58.2500 Du        
  10266 ****        34.0000  18.7500  58.5000 Du        
  10267 ****        34.0000  18.7500  58.7500 Du        
  10268 ****        34.0000  18.7500  59.0000 Du        
  10269 ****        34.0000  18.7500  59.2500 Du        
  10270 ****        34.0000  18.7500  59.5000 Du        
  10271 ****        34.0000  18.7500  59.7500 Du        
  10272 ****        34.0000  18.7500  60.0000 Du        
  10273 ****        34.0000  18.7500  60.2500 Du        
  10274 ****        34.0000  19.0000  57.5000 Du        
  10275 ****        34.0000  19.0000  57.7500 Du        
  10276 ****        34.0000  19.0000  58.0000 Du        
  10277 ****        34.0000  19.0000  58.2500 Du        
  10278 ****        34.0000  19.0000  58.5000 Du        
  10279 ****        34.0000  19.0000  58.7500 Du        
  10280 ****        34.0000  19.0000  59.0000 Du        
  10281 ****        34.0000  19.0000  59.2500 Du        
  10282 ****        34.0000  19.0000  59.5000 Du        
  10283 ****        34.0000  19.0000  59.7500 Du        
  10284 ****        34.0000  19.0000  60.0000 Du        
  10285 ****        34.0000  19.0000  60.2500 Du        
  10286 ****        34.0000  19.2500  57.5000 Du        
  10287 ****        34.0000  19.2500  57.7500 Du        
  10288 ****        34.0000  19.2500  58.0000 Du        
  10289 ****        34.0000  19.2500  58.2500 Du        
  10290 ****        34.0000  19.2500  58.5000 Du        
  10291 ****        34.0000  19.2500  58.7500 Du        
  10292 ****        34.0000  19.2500  59.0000 Du        
  10293 ****        34.0000  19.2500  59.2500 Du        
  10294 ****        34.0000  19.2500  59.5000 Du        
  10295 ****        34.0000  19.2500  59.7500 Du        
  10296 ****        34.0000  19.2500  60.0000 Du        
  10297 ****        34.0000  19.2500  60.2500 Du        
  10298 ****        34.0000  19.5000  57.5000 Du        
  10299 ****        34.0000  19.5000  57.7500 Du        
  10300 ****        34.0000  19.5000  58.0000 Du        
  10301 ****        34.0000  19.5000  58.2500 Du        
  10302 ****        34.0000  19.5000  58.5000 Du        
  10303 ****        34.0000  19.5000  58.7500 Du        
  10304 ****        34.0000  19.5000  59.0000 Du        
  10305 ****        34.0000  19.5000  59.2500 Du        
  10306 ****        34.0000  19.5000  59.5000 Du        
  10307 ****        34.0000  19.5000  59.7500 Du        
  10308 ****        34.0000  19.5000  60.0000 Du        
  10309 ****        34.0000  19.7500  57.7500 Du        
  10310 ****        34.0000  19.7500  58.0000 Du        
  10311 ****        34.0000  19.7500  58.2500 Du        
  10312 ****        34.0000  19.7500  58.5000 Du        
  10313 ****        34.0000  19.7500  58.7500 Du        
  10314 ****        34.0000  19.7500  59.0000 Du        
  10315 ****        34.0000  19.7500  59.2500 Du        
  10316 ****        34.0000  19.7500  59.5000 Du        
  10317 ****        34.0000  19.7500  59.7500 Du        
  10318 ****        34.0000  19.7500  60.0000 Du        
  10319 ****        34.0000  20.0000  57.7500 Du        
  10320 ****        34.0000  20.0000  58.0000 Du        
  10321 ****        34.0000  20.0000  58.2500 Du        
  10322 ****        34.0000  20.0000  58.5000 Du        
  10323 ****        34.0000  20.0000  58.7500 Du        
  10324 ****        34.0000  20.0000  59.0000 Du        
  10325 ****        34.0000  20.0000  59.2500 Du        
  10326 ****        34.0000  20.0000  59.5000 Du        
  10327 ****        34.0000  20.0000  59.7500 Du        
  10328 ****        34.0000  20.0000  60.0000 Du        
  10329 ****        34.0000  20.2500  58.0000 Du        
  10330 ****        34.0000  20.2500  58.2500 Du        
  10331 ****        34.0000  20.2500  58.5000 Du        
  10332 ****        34.0000  20.2500  58.7500 Du        
  10333 ****        34.0000  20.2500  59.0000 Du        
  10334 ****        34.0000  20.2500  59.2500 Du        
  10335 ****        34.0000  20.2500  59.5000 Du        
  10336 ****        34.0000  20.2500  59.7500 Du        
  10337 ****        34.0000  20.5000  58.0000 Du        
  10338 ****        34.0000  20.5000  58.2500 Du        
  10339 ****        34.0000  20.5000  58.5000 Du        
  10340 ****        34.0000  20.5000  58.7500 Du        
  10341 ****        34.0000  20.5000  59.0000 Du        
  10342 ****        34.0000  20.5000  59.2500 Du        
  10343 ****        34.0000  20.7500  58.0000 Du        
  10344 ****        34.0000  20.7500  58.2500 Du        
  10345 ****        34.0000  20.7500  58.5000 Du        
  10346 ****        34.0000  20.7500  58.7500 Du        
  10347 ****        34.0000  20.7500  59.0000 Du        
  10348 ****        34.0000  20.7500  59.2500 Du        
  10349 ****        34.0000  21.0000  58.2500 Du        
  10350 ****        34.0000  21.0000  58.5000 Du        
  10351 ****        34.0000  21.0000  58.7500 Du        
  10352 ****        34.0000  21.0000  59.0000 Du        
  10353 ****        34.0000  21.0000  59.2500 Du        
  10354 ****        34.0000  21.2500  58.7500 Du        
  10355 ****        34.0000  21.2500  59.0000 Du        
  10356 ****        34.0000  30.0000  52.7500 Du        
  10357 ****        34.0000  30.0000  53.0000 Du        
  10358 ****        34.0000  30.0000  53.2500 Du        
  10359 ****        34.0000  30.2500  52.7500 Du        
  10360 ****        34.0000  30.2500  53.0000 Du        
  10361 ****        34.0000  30.2500  53.2500 Du        
  10362 ****        34.0000  30.2500  53.5000 Du        
  10363 ****        34.0000  30.5000  52.7500 Du        
  10364 ****        34.0000  30.5000  53.0000 Du        
  10365 ****        34.0000  30.5000  53.2500 Du        
  10366 ****        34.0000  30.5000  53.5000 Du        
  10367 ****        34.0000  30.5000  53.7500 Du        
  10368 ****        34.0000  30.7500  52.7500 Du        
  10369 ****        34.0000  30.7500  53.0000 Du        
  10370 ****        34.0000  30.7500  53.2500 Du        
  10371 ****        34.0000  30.7500  53.5000 Du        
  10372 ****        34.0000  30.7500  53.7500 Du        
  10373 ****        34.0000  30.7500  54.0000 Du        
  10374 ****        34.0000  30.7500  54.2500 Du        
  10375 ****        34.0000  31.0000  52.7500 Du        
  10376 ****        34.0000  31.0000  53.0000 Du        
  10377 ****        34.0000  31.0000  53.2500 Du        
  10378 ****        34.0000  31.0000  53.5000 Du        
  10379 ****        34.0000  31.0000  53.7500 Du        
  10380 ****        34.0000  31.0000  54.0000 Du        
  10381 ****        34.0000  31.0000  54.2500 Du        
  10382 ****        34.0000  31.0000  54.5000 Du        
  10383 ****        34.0000  31.2500  52.7500 Du        
  10384 ****        34.0000  31.2500  53.0000 Du        
  10385 ****        34.0000  31.2500  53.2500 Du        
  10386 ****        34.0000  31.2500  53.5000 Du        
  10387 ****        34.0000  31.2500  53.7500 Du        
  10388 ****        34.0000  31.2500  54.0000 Du        
  10389 ****        34.0000  31.2500  54.2500 Du        
  10390 ****        34.0000  31.2500  54.5000 Du        
  10391 ****        34.0000  31.2500  54.7500 Du        
  10392 ****        34.0000  31.2500  55.0000 Du        
  10393 ****        34.0000  31.5000  52.7500 Du        
  10394 ****        34.0000  31.5000  53.0000 Du        
  10395 ****        34.0000  31.5000  53.2500 Du        
  10396 ****        34.0000  31.5000  53.5000 Du        
  10397 ****        34.0000  31.5000  53.7500 Du        
  10398 ****        34.0000  31.5000  54.0000 Du        
  10399 ****        34.0000  31.5000  54.2500 Du        
  10400 ****        34.0000  31.5000  54.5000 Du        
  10401 ****        34.0000  31.5000  54.7500 Du        
  10402 ****        34.0000  31.5000  55.0000 Du        
  10403 ****        34.0000  31.5000  55.2500 Du        
  10404 ****        34.0000  31.7500  52.7500 Du        
  10405 ****        34.0000  31.7500  53.0000 Du        
  10406 ****        34.0000  31.7500  53.2500 Du        
  10407 ****        34.0000  31.7500  53.5000 Du        
  10408 ****        34.0000  31.7500  53.7500 Du        
  10409 ****        34.0000  31.7500  54.0000 Du        
  10410 ****        34.0000  31.7500  54.2500 Du        
  10411 ****        34.0000  31.7500  54.5000 Du        
  10412 ****        34.0000  31.7500  54.7500 Du        
  10413 ****        34.0000  31.7500  55.0000 Du        
  10414 ****        34.0000  31.7500  55.2500 Du        
  10415 ****        34.0000  32.0000  52.7500 Du        
  10416 ****        34.0000  32.0000  53.0000 Du        
  10417 ****        34.0000  32.0000  53.2500 Du        
  10418 ****        34.0000  32.0000  53.5000 Du        
  10419 ****        34.0000  32.0000  53.7500 Du        
  10420 ****        34.0000  32.0000  54.0000 Du        
  10421 ****        34.0000  32.0000  54.2500 Du        
  10422 ****        34.0000  32.0000  54.5000 Du        
  10423 ****        34.0000  32.0000  54.7500 Du        
  10424 ****        34.0000  32.0000  55.0000 Du        
  10425 ****        34.0000  32.0000  55.2500 Du        
  10426 ****        34.0000  32.2500  52.7500 Du        
  10427 ****        34.0000  32.2500  53.0000 Du        
  10428 ****        34.0000  32.2500  53.2500 Du        
  10429 ****        34.0000  32.2500  53.5000 Du        
  10430 ****        34.0000  32.2500  53.7500 Du        
  10431 ****        34.0000  32.2500  54.0000 Du        
  10432 ****        34.0000  32.2500  54.2500 Du        
  10433 ****        34.0000  32.2500  54.5000 Du        
  10434 ****        34.0000  32.2500  54.7500 Du        
  10435 ****        34.0000  32.2500  55.0000 Du        
  10436 ****        34.0000  32.5000  53.0000 Du        
  10437 ****        34.0000  32.5000  53.2500 Du        
  10438 ****        34.0000  32.5000  53.5000 Du        
  10439 ****        34.0000  32.5000  53.7500 Du        
  10440 ****        34.0000  32.5000  54.0000 Du        
  10441 ****        34.0000  32.5000  54.2500 Du        
  10442 ****        34.0000  36.7500  58.2500 Du        
  10443 ****        34.0000  36.7500  58.5000 Du        
  10444 ****        34.0000  36.7500  58.7500 Du        
  10445 ****        34.0000  36.7500  59.0000 Du        
  10446 ****        34.0000  37.0000  58.2500 Du        
  10447 ****        34.0000  37.0000  58.5000 Du        
  10448 ****        34.0000  37.0000  58.7500 Du        
  10449 ****        34.0000  37.0000  59.0000 Du        
  10450 ****        34.0000  37.0000  59.2500 Du        
  10451 ****        34.0000  37.2500  58.2500 Du        
  10452 ****        34.0000  37.2500  58.5000 Du        
  10453 ****        34.0000  37.2500  58.7500 Du        
  10454 ****        34.0000  37.2500  59.0000 Du        
  10455 ****        34.0000  37.2500  59.2500 Du        
  10456 ****        34.0000  37.5000  58.2500 Du        
  10457 ****        34.0000  37.5000  58.5000 Du        
  10458 ****        34.0000  37.5000  58.7500 Du        
  10459 ****        34.0000  37.5000  59.0000 Du        
  10460 ****        34.0000  42.0000  44.7500 Du        
  10461 ****        34.0000  42.0000  45.0000 Du        
  10462 ****        34.0000  42.2500  44.7500 Du        
  10463 ****        34.0000  42.2500  45.0000 Du        
  10464 ****        34.0000  42.2500  45.2500 Du        
  10465 ****        34.0000  42.2500  45.5000 Du        
  10466 ****        34.0000  42.5000  44.7500 Du        
  10467 ****        34.0000  42.5000  45.0000 Du        
  10468 ****        34.0000  42.5000  45.2500 Du        
  10469 ****        34.0000  42.5000  45.5000 Du        
  10470 ****        34.0000  42.5000  45.7500 Du        
  10471 ****        34.0000  42.5000  46.0000 Du        
  10472 ****        34.0000  42.5000  46.2500 Du        
  10473 ****        34.0000  42.5000  46.5000 Du        
  10474 ****        34.0000  42.5000  46.7500 Du        
  10475 ****        34.0000  42.5000  47.0000 Du        
  10476 ****        34.0000  42.5000  47.2500 Du        
  10477 ****        34.0000  42.5000  47.5000 Du        
  10478 ****        34.0000  42.5000  47.7500 Du        
  10479 ****        34.0000  42.7500  44.7500 Du        
  10480 ****        34.0000  42.7500  45.0000 Du        
  10481 ****        34.0000  42.7500  45.2500 Du        
  10482 ****        34.0000  42.7500  45.5000 Du        
  10483 ****        34.0000  42.7500  45.7500 Du        
  10484 ****        34.0000  42.7500  46.0000 Du        
  10485 ****        34.0000  42.7500  46.2500 Du        
  10486 ****        34.0000  42.7500  46.5000 Du        
  10487 ****        34.0000  42.7500  46.7500 Du        
  10488 ****        34.0000  42.7500  47.0000 Du        
  10489 ****        34.0000  42.7500  47.2500 Du        
  10490 ****        34.0000  42.7500  47.5000 Du        
  10491 ****        34.0000  42.7500  47.7500 Du        
  10492 ****        34.0000  43.0000  44.5000 Du        
  10493 ****        34.0000  43.0000  44.7500 Du        
  10494 ****        34.0000  43.0000  45.0000 Du        
  10495 ****        34.0000  43.0000  45.2500 Du        
  10496 ****        34.0000  43.0000  45.5000 Du        
  10497 ****        34.0000  43.0000  45.7500 Du        
  10498 ****        34.0000  43.0000  46.0000 Du        
  10499 ****        34.0000  43.0000  46.2500 Du        
  10500 ****        34.0000  43.0000  46.5000 Du        
  10501 ****        34.0000  43.0000  46.7500 Du        
  10502 ****        34.0000  43.0000  47.0000 Du        
  10503 ****        34.0000  43.0000  47.2500 Du        
  10504 ****        34.0000  43.0000  47.5000 Du        
  10505 ****        34.0000  43.0000  47.7500 Du        
  10506 ****        34.0000  43.2500  44.7500 Du        
  10507 ****        34.0000  43.2500  45.0000 Du        
  10508 ****        34.0000  43.2500  45.2500 Du        
  10509 ****        34.0000  43.2500  45.5000 Du        
  10510 ****        34.0000  43.2500  45.7500 Du        
  10511 ****        34.0000  43.2500  46.0000 Du        
  10512 ****        34.0000  43.2500  46.2500 Du        
  10513 ****        34.0000  43.2500  46.5000 Du        
  10514 ****        34.0000  43.2500  46.7500 Du        
  10515 ****        34.0000  43.2500  47.0000 Du        
  10516 ****        34.0000  43.2500  47.2500 Du        
  10517 ****        34.0000  43.2500  47.5000 Du        
  10518 ****        34.0000  43.2500  47.7500 Du        
  10519 ****        34.0000  43.5000  44.7500 Du        
  10520 ****        34.0000  43.5000  45.0000 Du        
  10521 ****        34.0000  43.5000  45.2500 Du        
  10522 ****        34.0000  43.5000  45.5000 Du        
  10523 ****        34.0000  43.5000  45.7500 Du        
  10524 ****        34.0000  43.5000  46.0000 Du        
  10525 ****        34.0000  43.5000  46.2500 Du        
  10526 ****        34.0000  43.5000  46.5000 Du        
  10527 ****        34.0000  43.5000  46.7500 Du        
  10528 ****        34.0000  43.5000  47.0000 Du        
  10529 ****        34.0000  43.5000  47.2500 Du        
  10530 ****        34.0000  43.5000  47.5000 Du        
  10531 ****        34.0000  43.7500  44.7500 Du        
  10532 ****        34.0000  43.7500  45.0000 Du        
  10533 ****        34.0000  43.7500  45.2500 Du        
  10534 ****        34.0000  43.7500  45.5000 Du        
  10535 ****        34.0000  43.7500  45.7500 Du        
  10536 ****        34.0000  43.7500  46.0000 Du        
  10537 ****        34.0000  43.7500  46.2500 Du        
  10538 ****        34.0000  43.7500  46.5000 Du        
  10539 ****        34.0000  43.7500  46.7500 Du        
  10540 ****        34.0000  43.7500  47.0000 Du        
  10541 ****        34.0000  43.7500  47.2500 Du        
  10542 ****        34.0000  44.0000  44.7500 Du        
  10543 ****        34.0000  44.0000  45.0000 Du        
  10544 ****        34.0000  44.0000  45.2500 Du        
  10545 ****        34.0000  44.0000  45.5000 Du        
  10546 ****        34.0000  44.0000  45.7500 Du        
  10547 ****        34.0000  44.0000  46.0000 Du        
  10548 ****        34.0000  44.0000  46.2500 Du        
  10549 ****        34.0000  44.0000  46.5000 Du        
  10550 ****        34.0000  44.0000  46.7500 Du        
  10551 ****        34.0000  44.0000  47.0000 Du        
  10552 ****        34.0000  44.0000  47.2500 Du        
  10553 ****        34.0000  44.2500  44.7500 Du        
  10554 ****        34.0000  44.2500  45.0000 Du        
  10555 ****        34.0000  44.2500  45.2500 Du        
  10556 ****        34.0000  44.2500  45.5000 Du        
  10557 ****        34.0000  44.2500  45.7500 Du        
  10558 ****        34.0000  44.2500  46.0000 Du        
  10559 ****        34.0000  44.2500  46.2500 Du        
  10560 ****        34.0000  44.2500  46.5000 Du        
  10561 ****        34.0000  44.2500  46.7500 Du        
  10562 ****        34.0000  44.2500  47.0000 Du        
  10563 ****        34.0000  44.5000  45.0000 Du        
  10564 ****        34.0000  44.5000  45.2500 Du        
  10565 ****        34.0000  44.5000  45.5000 Du        
  10566 ****        34.0000  44.5000  45.7500 Du        
  10567 ****        34.0000  44.5000  46.0000 Du        
  10568 ****        34.0000  44.5000  46.2500 Du        
  10569 ****        34.0000  44.7500  45.0000 Du        
  10570 ****        34.0000  44.7500  45.2500 Du        
  10571 ****        34.0000  44.7500  45.7500 Du        
  10572 ****        34.0000  44.7500  46.0000 Du        
  10573 ****        34.2500  15.0000  57.0000 Du        
  10574 ****        34.2500  15.0000  57.2500 Du        
  10575 ****        34.2500  15.0000  57.5000 Du        
  10576 ****        34.2500  15.0000  57.7500 Du        
  10577 ****        34.2500  15.0000  58.0000 Du        
  10578 ****        34.2500  15.2500  57.2500 Du        
  10579 ****        34.2500  15.2500  57.5000 Du        
  10580 ****        34.2500  15.2500  57.7500 Du        
  10581 ****        34.2500  15.2500  58.0000 Du        
  10582 ****        34.2500  15.5000  57.2500 Du        
  10583 ****        34.2500  15.5000  57.5000 Du        
  10584 ****        34.2500  15.5000  57.7500 Du        
  10585 ****        34.2500  15.5000  58.0000 Du        
  10586 ****        34.2500  15.5000  58.2500 Du        
  10587 ****        34.2500  15.7500  57.5000 Du        
  10588 ****        34.2500  15.7500  57.7500 Du        
  10589 ****        34.2500  15.7500  58.0000 Du        
  10590 ****        34.2500  15.7500  58.2500 Du        
  10591 ****        34.2500  16.0000  57.5000 Du        
  10592 ****        34.2500  16.0000  57.7500 Du        
  10593 ****        34.2500  16.0000  58.0000 Du        
  10594 ****        34.2500  16.0000  58.2500 Du        
  10595 ****        34.2500  16.0000  58.5000 Du        
  10596 ****        34.2500  16.2500  57.5000 Du        
  10597 ****        34.2500  16.2500  57.7500 Du        
  10598 ****        34.2500  16.2500  58.0000 Du        
  10599 ****        34.2500  16.2500  58.2500 Du        
  10600 ****        34.2500  16.2500  58.5000 Du        
  10601 ****        34.2500  16.2500  58.7500 Du        
  10602 ****        34.2500  16.5000  57.7500 Du        
  10603 ****        34.2500  16.5000  58.0000 Du        
  10604 ****        34.2500  16.5000  58.2500 Du        
  10605 ****        34.2500  16.5000  58.5000 Du        
  10606 ****        34.2500  16.5000  58.7500 Du        
  10607 ****        34.2500  16.7500  57.7500 Du        
  10608 ****        34.2500  16.7500  58.0000 Du        
  10609 ****        34.2500  16.7500  58.2500 Du        
  10610 ****        34.2500  16.7500  58.5000 Du        
  10611 ****        34.2500  16.7500  58.7500 Du        
  10612 ****        34.2500  16.7500  59.0000 Du        
  10613 ****        34.2500  17.0000  57.7500 Du        
  10614 ****        34.2500  17.0000  58.0000 Du        
  10615 ****        34.2500  17.0000  58.2500 Du        
  10616 ****        34.2500  17.0000  58.5000 Du        
  10617 ****        34.2500  17.0000  58.7500 Du        
  10618 ****        34.2500  17.0000  59.0000 Du        
  10619 ****        34.2500  17.2500  57.7500 Du        
  10620 ****        34.2500  17.2500  58.0000 Du        
  10621 ****        34.2500  17.2500  58.2500 Du        
  10622 ****        34.2500  17.2500  58.5000 Du        
  10623 ****        34.2500  17.2500  58.7500 Du        
  10624 ****        34.2500  17.2500  59.0000 Du        
  10625 ****        34.2500  17.2500  59.2500 Du        
  10626 ****        34.2500  17.5000  57.7500 Du        
  10627 ****        34.2500  17.5000  58.0000 Du        
  10628 ****        34.2500  17.5000  58.2500 Du        
  10629 ****        34.2500  17.5000  58.5000 Du        
  10630 ****        34.2500  17.5000  58.7500 Du        
  10631 ****        34.2500  17.5000  59.0000 Du        
  10632 ****        34.2500  17.5000  59.2500 Du        
  10633 ****        34.2500  17.7500  57.7500 Du        
  10634 ****        34.2500  17.7500  58.0000 Du        
  10635 ****        34.2500  17.7500  58.2500 Du        
  10636 ****        34.2500  17.7500  58.5000 Du        
  10637 ****        34.2500  17.7500  58.7500 Du        
  10638 ****        34.2500  17.7500  59.0000 Du        
  10639 ****        34.2500  17.7500  59.2500 Du        
  10640 ****        34.2500  17.7500  59.5000 Du        
  10641 ****        34.2500  17.7500  59.7500 Du        
  10642 ****        34.2500  18.0000  57.7500 Du        
  10643 ****        34.2500  18.0000  58.0000 Du        
  10644 ****        34.2500  18.0000  58.2500 Du        
  10645 ****        34.2500  18.0000  58.5000 Du        
  10646 ****        34.2500  18.0000  58.7500 Du        
  10647 ****        34.2500  18.0000  59.0000 Du        
  10648 ****        34.2500  18.0000  59.2500 Du        
  10649 ****        34.2500  18.0000  59.5000 Du        
  10650 ****        34.2500  18.0000  59.7500 Du        
  10651 ****        34.2500  18.0000  60.0000 Du        
  10652 ****        34.2500  18.2500  57.7500 Du        
  10653 ****        34.2500  18.2500  58.0000 Du        
  10654 ****        34.2500  18.2500  58.2500 Du        
  10655 ****        34.2500  18.2500  58.5000 Du        
  10656 ****        34.2500  18.2500  58.7500 Du        
  10657 ****        34.2500  18.2500  59.0000 Du        
  10658 ****        34.2500  18.2500  59.2500 Du        
  10659 ****        34.2500  18.2500  59.5000 Du        
  10660 ****        34.2500  18.2500  59.7500 Du        
  10661 ****        34.2500  18.2500  60.0000 Du        
  10662 ****        34.2500  18.2500  60.2500 Du        
  10663 ****        34.2500  18.5000  57.5000 Du        
  10664 ****        34.2500  18.5000  57.7500 Du        
  10665 ****        34.2500  18.5000  58.0000 Du        
  10666 ****        34.2500  18.5000  58.2500 Du        
  10667 ****        34.2500  18.5000  58.5000 Du        
  10668 ****        34.2500  18.5000  58.7500 Du        
  10669 ****        34.2500  18.5000  59.0000 Du        
  10670 ****        34.2500  18.5000  59.2500 Du        
  10671 ****        34.2500  18.5000  59.5000 Du        
  10672 ****        34.2500  18.5000  59.7500 Du        
  10673 ****        34.2500  18.5000  60.0000 Du        
  10674 ****        34.2500  18.5000  60.2500 Du        
  10675 ****        34.2500  18.7500  57.5000 Du        
  10676 ****        34.2500  18.7500  57.7500 Du        
  10677 ****        34.2500  18.7500  58.0000 Du        
  10678 ****        34.2500  18.7500  58.2500 Du        
  10679 ****        34.2500  18.7500  58.5000 Du        
  10680 ****        34.2500  18.7500  58.7500 Du        
  10681 ****        34.2500  18.7500  59.0000 Du        
  10682 ****        34.2500  18.7500  59.2500 Du        
  10683 ****        34.2500  18.7500  59.5000 Du        
  10684 ****        34.2500  18.7500  59.7500 Du        
  10685 ****        34.2500  18.7500  60.0000 Du        
  10686 ****        34.2500  18.7500  60.2500 Du        
  10687 ****        34.2500  19.0000  57.5000 Du        
  10688 ****        34.2500  19.0000  57.7500 Du        
  10689 ****        34.2500  19.0000  58.0000 Du        
  10690 ****        34.2500  19.0000  58.2500 Du        
  10691 ****        34.2500  19.0000  58.5000 Du        
  10692 ****        34.2500  19.0000  58.7500 Du        
  10693 ****        34.2500  19.0000  59.0000 Du        
  10694 ****        34.2500  19.0000  59.2500 Du        
  10695 ****        34.2500  19.0000  59.5000 Du        
  10696 ****        34.2500  19.0000  59.7500 Du        
  10697 ****        34.2500  19.0000  60.0000 Du        
  10698 ****        34.2500  19.0000  60.2500 Du        
  10699 ****        34.2500  19.2500  57.5000 Du        
  10700 ****        34.2500  19.2500  57.7500 Du        
  10701 ****        34.2500  19.2500  58.0000 Du        
  10702 ****        34.2500  19.2500  58.2500 Du        
  10703 ****        34.2500  19.2500  58.5000 Du        
  10704 ****        34.2500  19.2500  58.7500 Du        
  10705 ****        34.2500  19.2500  59.0000 Du        
  10706 ****        34.2500  19.2500  59.2500 Du        
  10707 ****        34.2500  19.2500  59.5000 Du        
  10708 ****        34.2500  19.2500  59.7500 Du        
  10709 ****        34.2500  19.2500  60.0000 Du        
  10710 ****        34.2500  19.2500  60.2500 Du        
  10711 ****        34.2500  19.5000  57.7500 Du        
  10712 ****        34.2500  19.5000  58.0000 Du        
  10713 ****        34.2500  19.5000  58.2500 Du        
  10714 ****        34.2500  19.5000  58.5000 Du        
  10715 ****        34.2500  19.5000  58.7500 Du        
  10716 ****        34.2500  19.5000  59.0000 Du        
  10717 ****        34.2500  19.5000  59.2500 Du        
  10718 ****        34.2500  19.5000  59.5000 Du        
  10719 ****        34.2500  19.5000  59.7500 Du        
  10720 ****        34.2500  19.5000  60.0000 Du        
  10721 ****        34.2500  19.7500  57.7500 Du        
  10722 ****        34.2500  19.7500  58.0000 Du        
  10723 ****        34.2500  19.7500  58.2500 Du        
  10724 ****        34.2500  19.7500  58.5000 Du        
  10725 ****        34.2500  19.7500  58.7500 Du        
  10726 ****        34.2500  19.7500  59.0000 Du        
  10727 ****        34.2500  19.7500  59.2500 Du        
  10728 ****        34.2500  19.7500  59.5000 Du        
  10729 ****        34.2500  19.7500  59.7500 Du        
  10730 ****        34.2500  19.7500  60.0000 Du        
  10731 ****        34.2500  20.0000  58.0000 Du        
  10732 ****        34.2500  20.0000  58.2500 Du        
  10733 ****        34.2500  20.0000  58.5000 Du        
  10734 ****        34.2500  20.0000  58.7500 Du        
  10735 ****        34.2500  20.0000  59.0000 Du        
  10736 ****        34.2500  20.0000  59.2500 Du        
  10737 ****        34.2500  20.0000  59.5000 Du        
  10738 ****        34.2500  20.0000  59.7500 Du        
  10739 ****        34.2500  20.0000  60.0000 Du        
  10740 ****        34.2500  20.2500  58.0000 Du        
  10741 ****        34.2500  20.2500  58.2500 Du        
  10742 ****        34.2500  20.2500  58.5000 Du        
  10743 ****        34.2500  20.2500  58.7500 Du        
  10744 ****        34.2500  20.2500  59.0000 Du        
  10745 ****        34.2500  20.2500  59.2500 Du        
  10746 ****        34.2500  20.2500  59.5000 Du        
  10747 ****        34.2500  20.2500  59.7500 Du        
  10748 ****        34.2500  20.2500  60.0000 Du        
  10749 ****        34.2500  20.5000  58.0000 Du        
  10750 ****        34.2500  20.5000  58.2500 Du        
  10751 ****        34.2500  20.5000  58.5000 Du        
  10752 ****        34.2500  20.5000  58.7500 Du        
  10753 ****        34.2500  20.5000  59.0000 Du        
  10754 ****        34.2500  20.5000  59.2500 Du        
  10755 ****        34.2500  20.5000  59.5000 Du        
  10756 ****        34.2500  20.5000  59.7500 Du        
  10757 ****        34.2500  20.7500  58.2500 Du        
  10758 ****        34.2500  20.7500  58.5000 Du        
  10759 ****        34.2500  20.7500  58.7500 Du        
  10760 ****        34.2500  20.7500  59.0000 Du        
  10761 ****        34.2500  20.7500  59.2500 Du        
  10762 ****        34.2500  20.7500  59.7500 Du        
  10763 ****        34.2500  21.0000  58.2500 Du        
  10764 ****        34.2500  21.0000  58.5000 Du        
  10765 ****        34.2500  21.0000  58.7500 Du        
  10766 ****        34.2500  21.0000  59.0000 Du        
  10767 ****        34.2500  21.0000  59.2500 Du        
  10768 ****        34.2500  21.2500  58.7500 Du        
  10769 ****        34.2500  21.2500  59.0000 Du        
  10770 ****        34.2500  30.0000  52.5000 Du        
  10771 ****        34.2500  30.0000  52.7500 Du        
  10772 ****        34.2500  30.0000  53.0000 Du        
  10773 ****        34.2500  30.0000  53.2500 Du        
  10774 ****        34.2500  30.2500  52.5000 Du        
  10775 ****        34.2500  30.2500  52.7500 Du        
  10776 ****        34.2500  30.2500  53.0000 Du        
  10777 ****        34.2500  30.2500  53.2500 Du        
  10778 ****        34.2500  30.2500  53.5000 Du        
  10779 ****        34.2500  30.5000  52.5000 Du        
  10780 ****        34.2500  30.5000  52.7500 Du        
  10781 ****        34.2500  30.5000  53.0000 Du        
  10782 ****        34.2500  30.5000  53.2500 Du        
  10783 ****        34.2500  30.5000  53.5000 Du        
  10784 ****        34.2500  30.5000  53.7500 Du        
  10785 ****        34.2500  30.7500  52.5000 Du        
  10786 ****        34.2500  30.7500  52.7500 Du        
  10787 ****        34.2500  30.7500  53.0000 Du        
  10788 ****        34.2500  30.7500  53.2500 Du        
  10789 ****        34.2500  30.7500  53.5000 Du        
  10790 ****        34.2500  30.7500  53.7500 Du        
  10791 ****        34.2500  30.7500  54.0000 Du        
  10792 ****        34.2500  31.0000  52.5000 Du        
  10793 ****        34.2500  31.0000  52.7500 Du        
  10794 ****        34.2500  31.0000  53.0000 Du        
  10795 ****        34.2500  31.0000  53.2500 Du        
  10796 ****        34.2500  31.0000  53.5000 Du        
  10797 ****        34.2500  31.0000  53.7500 Du        
  10798 ****        34.2500  31.0000  54.0000 Du        
  10799 ****        34.2500  31.0000  54.2500 Du        
  10800 ****        34.2500  31.0000  54.5000 Du        
  10801 ****        34.2500  31.2500  52.5000 Du        
  10802 ****        34.2500  31.2500  52.7500 Du        
  10803 ****        34.2500  31.2500  53.0000 Du        
  10804 ****        34.2500  31.2500  53.2500 Du        
  10805 ****        34.2500  31.2500  53.5000 Du        
  10806 ****        34.2500  31.2500  53.7500 Du        
  10807 ****        34.2500  31.2500  54.0000 Du        
  10808 ****        34.2500  31.2500  54.2500 Du        
  10809 ****        34.2500  31.2500  54.5000 Du        
  10810 ****        34.2500  31.2500  54.7500 Du        
  10811 ****        34.2500  31.2500  55.0000 Du        
  10812 ****        34.2500  31.5000  52.7500 Du        
  10813 ****        34.2500  31.5000  53.0000 Du        
  10814 ****        34.2500  31.5000  53.2500 Du        
  10815 ****        34.2500  31.5000  53.5000 Du        
  10816 ****        34.2500  31.5000  53.7500 Du        
  10817 ****        34.2500  31.5000  54.0000 Du        
  10818 ****        34.2500  31.5000  54.2500 Du        
  10819 ****        34.2500  31.5000  54.5000 Du        
  10820 ****        34.2500  31.5000  54.7500 Du        
  10821 ****        34.2500  31.5000  55.0000 Du        
  10822 ****        34.2500  31.5000  55.2500 Du        
  10823 ****        34.2500  31.7500  52.7500 Du        
  10824 ****        34.2500  31.7500  53.0000 Du        
  10825 ****        34.2500  31.7500  53.2500 Du        
  10826 ****        34.2500  31.7500  53.5000 Du        
  10827 ****        34.2500  31.7500  53.7500 Du        
  10828 ****        34.2500  31.7500  54.0000 Du        
  10829 ****        34.2500  31.7500  54.2500 Du        
  10830 ****        34.2500  31.7500  54.5000 Du        
  10831 ****        34.2500  31.7500  54.7500 Du        
  10832 ****        34.2500  31.7500  55.0000 Du        
  10833 ****        34.2500  31.7500  55.2500 Du        
  10834 ****        34.2500  32.0000  52.7500 Du        
  10835 ****        34.2500  32.0000  53.0000 Du        
  10836 ****        34.2500  32.0000  53.2500 Du        
  10837 ****        34.2500  32.0000  53.5000 Du        
  10838 ****        34.2500  32.0000  53.7500 Du        
  10839 ****        34.2500  32.0000  54.0000 Du        
  10840 ****        34.2500  32.0000  54.2500 Du        
  10841 ****        34.2500  32.0000  54.5000 Du        
  10842 ****        34.2500  32.0000  54.7500 Du        
  10843 ****        34.2500  32.0000  55.0000 Du        
  10844 ****        34.2500  32.0000  55.2500 Du        
  10845 ****        34.2500  32.2500  52.7500 Du        
  10846 ****        34.2500  32.2500  53.0000 Du        
  10847 ****        34.2500  32.2500  53.2500 Du        
  10848 ****        34.2500  32.2500  53.5000 Du        
  10849 ****        34.2500  32.2500  53.7500 Du        
  10850 ****        34.2500  32.2500  54.0000 Du        
  10851 ****        34.2500  32.2500  54.2500 Du        
  10852 ****        34.2500  32.2500  54.5000 Du        
  10853 ****        34.2500  32.2500  54.7500 Du        
  10854 ****        34.2500  32.2500  55.0000 Du        
  10855 ****        34.2500  32.5000  53.0000 Du        
  10856 ****        34.2500  32.5000  53.2500 Du        
  10857 ****        34.2500  32.5000  53.5000 Du        
  10858 ****        34.2500  32.5000  53.7500 Du        
  10859 ****        34.2500  32.5000  54.0000 Du        
  10860 ****        34.2500  32.5000  54.2500 Du        
  10861 ****        34.2500  32.7500  53.7500 Du        
  10862 ****        34.2500  36.7500  58.5000 Du        
  10863 ****        34.2500  37.0000  58.2500 Du        
  10864 ****        34.2500  37.0000  58.5000 Du        
  10865 ****        34.2500  37.0000  58.7500 Du        
  10866 ****        34.2500  37.0000  59.0000 Du        
  10867 ****        34.2500  37.2500  58.0000 Du        
  10868 ****        34.2500  37.2500  58.2500 Du        
  10869 ****        34.2500  37.2500  58.5000 Du        
  10870 ****        34.2500  37.2500  58.7500 Du        
  10871 ****        34.2500  37.2500  59.0000 Du        
  10872 ****        34.2500  37.5000  58.0000 Du        
  10873 ****        34.2500  37.5000  58.2500 Du        
  10874 ****        34.2500  37.5000  58.5000 Du        
  10875 ****        34.2500  37.5000  58.7500 Du        
  10876 ****        34.2500  37.5000  59.0000 Du        
  10877 ****        34.2500  37.7500  58.2500 Du        
  10878 ****        34.2500  37.7500  58.5000 Du        
  10879 ****        34.2500  41.5000  44.5000 Du        
  10880 ****        34.2500  41.5000  44.7500 Du        
  10881 ****        34.2500  41.7500  44.5000 Du        
  10882 ****        34.2500  41.7500  44.7500 Du        
  10883 ****        34.2500  41.7500  45.0000 Du        
  10884 ****        34.2500  42.0000  44.5000 Du        
  10885 ****        34.2500  42.0000  44.7500 Du        
  10886 ****        34.2500  42.0000  45.0000 Du        
  10887 ****        34.2500  42.0000  45.2500 Du        
  10888 ****        34.2500  42.2500  44.5000 Du        
  10889 ****        34.2500  42.2500  44.7500 Du        
  10890 ****        34.2500  42.2500  45.0000 Du        
  10891 ****        34.2500  42.2500  45.2500 Du        
  10892 ****        34.2500  42.2500  45.5000 Du        
  10893 ****        34.2500  42.2500  45.7500 Du        
  10894 ****        34.2500  42.2500  46.0000 Du        
  10895 ****        34.2500  42.2500  47.0000 Du        
  10896 ****        34.2500  42.2500  47.2500 Du        
  10897 ****        34.2500  42.2500  47.5000 Du        
  10898 ****        34.2500  42.2500  47.7500 Du        
  10899 ****        34.2500  42.5000  44.5000 Du        
  10900 ****        34.2500  42.5000  44.7500 Du        
  10901 ****        34.2500  42.5000  45.0000 Du        
  10902 ****        34.2500  42.5000  45.2500 Du        
  10903 ****        34.2500  42.5000  45.5000 Du        
  10904 ****        34.2500  42.5000  45.7500 Du        
  10905 ****        34.2500  42.5000  46.0000 Du        
  10906 ****        34.2500  42.5000  46.2500 Du        
  10907 ****        34.2500  42.5000  46.5000 Du        
  10908 ****        34.2500  42.5000  46.7500 Du        
  10909 ****        34.2500  42.5000  47.0000 Du        
  10910 ****        34.2500  42.5000  47.2500 Du        
  10911 ****        34.2500  42.5000  47.5000 Du        
  10912 ****        34.2500  42.5000  47.7500 Du        
  10913 ****        34.2500  42.5000  48.0000 Du        
  10914 ****        34.2500  42.7500  44.5000 Du        
  10915 ****        34.2500  42.7500  44.7500 Du        
  10916 ****        34.2500  42.7500  45.0000 Du        
  10917 ****        34.2500  42.7500  45.2500 Du        
  10918 ****        34.2500  42.7500  45.5000 Du        
  10919 ****        34.2500  42.7500  45.7500 Du        
  10920 ****        34.2500  42.7500  46.0000 Du        
  10921 ****        34.2500  42.7500  46.2500 Du        
  10922 ****        34.2500  42.7500  46.5000 Du        
  10923 ****        34.2500  42.7500  46.7500 Du        
  10924 ****        34.2500  42.7500  47.0000 Du        
  10925 ****        34.2500  42.7500  47.2500 Du        
  10926 ****        34.2500  42.7500  47.5000 Du        
  10927 ****        34.2500  42.7500  47.7500 Du        
  10928 ****        34.2500  42.7500  48.0000 Du        
  10929 ****        34.2500  43.0000  44.5000 Du        
  10930 ****        34.2500  43.0000  44.7500 Du        
  10931 ****        34.2500  43.0000  45.0000 Du        
  10932 ****        34.2500  43.0000  45.2500 Du        
  10933 ****        34.2500  43.0000  45.5000 Du        
  10934 ****        34.2500  43.0000  45.7500 Du        
  10935 ****        34.2500  43.0000  46.0000 Du        
  10936 ****        34.2500  43.0000  46.2500 Du        
  10937 ****        34.2500  43.0000  46.5000 Du        
  10938 ****        34.2500  43.0000  46.7500 Du        
  10939 ****        34.2500  43.0000  47.0000 Du        
  10940 ****        34.2500  43.0000  47.2500 Du        
  10941 ****        34.2500  43.0000  47.5000 Du        
  10942 ****        34.2500  43.0000  47.7500 Du        
  10943 ****        34.2500  43.2500  44.7500 Du        
  10944 ****        34.2500  43.2500  45.0000 Du        
  10945 ****        34.2500  43.2500  45.2500 Du        
  10946 ****        34.2500  43.2500  45.5000 Du        
  10947 ****        34.2500  43.2500  45.7500 Du        
  10948 ****        34.2500  43.2500  46.0000 Du        
  10949 ****        34.2500  43.2500  46.2500 Du        
  10950 ****        34.2500  43.2500  46.5000 Du        
  10951 ****        34.2500  43.2500  46.7500 Du        
  10952 ****        34.2500  43.2500  47.0000 Du        
  10953 ****        34.2500  43.2500  47.2500 Du        
  10954 ****        34.2500  43.2500  47.5000 Du        
  10955 ****        34.2500  43.2500  47.7500 Du        
  10956 ****        34.2500  43.5000  44.7500 Du        
  10957 ****        34.2500  43.5000  45.0000 Du        
  10958 ****        34.2500  43.5000  45.2500 Du        
  10959 ****        34.2500  43.5000  45.5000 Du        
  10960 ****        34.2500  43.5000  45.7500 Du        
  10961 ****        34.2500  43.5000  46.0000 Du        
  10962 ****        34.2500  43.5000  46.2500 Du        
  10963 ****        34.2500  43.5000  46.5000 Du        
  10964 ****        34.2500  43.5000  46.7500 Du        
  10965 ****        34.2500  43.5000  47.0000 Du        
  10966 ****        34.2500  43.5000  47.2500 Du        
  10967 ****        34.2500  43.5000  47.5000 Du        
  10968 ****        34.2500  43.7500  44.7500 Du        
  10969 ****        34.2500  43.7500  45.0000 Du        
  10970 ****        34.2500  43.7500  45.2500 Du        
  10971 ****        34.2500  43.7500  45.5000 Du        
  10972 ****        34.2500  43.7500  45.7500 Du        
  10973 ****        34.2500  43.7500  46.0000 Du        
  10974 ****        34.2500  43.7500  46.2500 Du        
  10975 ****        34.2500  43.7500  46.5000 Du        
  10976 ****        34.2500  43.7500  46.7500 Du        
  10977 ****        34.2500  43.7500  47.0000 Du        
  10978 ****        34.2500  43.7500  47.2500 Du        
  10979 ****        34.2500  44.0000  44.7500 Du        
  10980 ****        34.2500  44.0000  45.0000 Du        
  10981 ****        34.2500  44.0000  45.2500 Du        
  10982 ****        34.2500  44.0000  45.5000 Du        
  10983 ****        34.2500  44.0000  45.7500 Du        
  10984 ****        34.2500  44.0000  46.0000 Du        
  10985 ****        34.2500  44.0000  46.2500 Du        
  10986 ****        34.2500  44.0000  46.5000 Du        
  10987 ****        34.2500  44.0000  46.7500 Du        
  10988 ****        34.2500  44.0000  47.0000 Du        
  10989 ****        34.2500  44.0000  47.2500 Du        
  10990 ****        34.2500  44.2500  45.0000 Du        
  10991 ****        34.2500  44.2500  45.2500 Du        
  10992 ****        34.2500  44.2500  45.5000 Du        
  10993 ****        34.2500  44.2500  45.7500 Du        
  10994 ****        34.2500  44.2500  46.0000 Du        
  10995 ****        34.2500  44.2500  46.2500 Du        
  10996 ****        34.2500  44.2500  46.5000 Du        
  10997 ****        34.2500  44.2500  46.7500 Du        
  10998 ****        34.2500  44.2500  47.0000 Du        
  10999 ****        34.2500  44.5000  45.7500 Du        
  11000 ****        34.5000  15.0000  57.0000 Du        
  11001 ****        34.5000  15.0000  57.2500 Du        
  11002 ****        34.5000  15.0000  57.5000 Du        
  11003 ****        34.5000  15.0000  57.7500 Du        
  11004 ****        34.5000  15.0000  58.0000 Du        
  11005 ****        34.5000  15.2500  57.2500 Du        
  11006 ****        34.5000  15.2500  57.5000 Du        
  11007 ****        34.5000  15.2500  57.7500 Du        
  11008 ****        34.5000  15.2500  58.0000 Du        
  11009 ****        34.5000  15.2500  58.2500 Du        
  11010 ****        34.5000  15.5000  57.2500 Du        
  11011 ****        34.5000  15.5000  57.5000 Du        
  11012 ****        34.5000  15.5000  57.7500 Du        
  11013 ****        34.5000  15.5000  58.0000 Du        
  11014 ****        34.5000  15.5000  58.2500 Du        
  11015 ****        34.5000  15.7500  57.5000 Du        
  11016 ****        34.5000  15.7500  57.7500 Du        
  11017 ****        34.5000  15.7500  58.0000 Du        
  11018 ****        34.5000  15.7500  58.2500 Du        
  11019 ****        34.5000  15.7500  58.5000 Du        
  11020 ****        34.5000  16.0000  57.5000 Du        
  11021 ****        34.5000  16.0000  57.7500 Du        
  11022 ****        34.5000  16.0000  58.0000 Du        
  11023 ****        34.5000  16.0000  58.2500 Du        
  11024 ****        34.5000  16.0000  58.5000 Du        
  11025 ****        34.5000  16.0000  58.7500 Du        
  11026 ****        34.5000  16.2500  57.7500 Du        
  11027 ****        34.5000  16.2500  58.0000 Du        
  11028 ****        34.5000  16.2500  58.2500 Du        
  11029 ****        34.5000  16.2500  58.5000 Du        
  11030 ****        34.5000  16.2500  58.7500 Du        
  11031 ****        34.5000  16.5000  57.7500 Du        
  11032 ****        34.5000  16.5000  58.0000 Du        
  11033 ****        34.5000  16.5000  58.2500 Du        
  11034 ****        34.5000  16.5000  58.5000 Du        
  11035 ****        34.5000  16.5000  58.7500 Du        
  11036 ****        34.5000  16.5000  59.0000 Du        
  11037 ****        34.5000  16.7500  57.7500 Du        
  11038 ****        34.5000  16.7500  58.0000 Du        
  11039 ****        34.5000  16.7500  58.2500 Du        
  11040 ****        34.5000  16.7500  58.5000 Du        
  11041 ****        34.5000  16.7500  58.7500 Du        
  11042 ****        34.5000  16.7500  59.0000 Du        
  11043 ****        34.5000  17.0000  57.7500 Du        
  11044 ****        34.5000  17.0000  58.0000 Du        
  11045 ****        34.5000  17.0000  58.2500 Du        
  11046 ****        34.5000  17.0000  58.5000 Du        
  11047 ****        34.5000  17.0000  58.7500 Du        
  11048 ****        34.5000  17.0000  59.0000 Du        
  11049 ****        34.5000  17.0000  59.2500 Du        
  11050 ****        34.5000  17.2500  57.7500 Du        
  11051 ****        34.5000  17.2500  58.0000 Du        
  11052 ****        34.5000  17.2500  58.2500 Du        
  11053 ****        34.5000  17.2500  58.5000 Du        
  11054 ****        34.5000  17.2500  58.7500 Du        
  11055 ****        34.5000  17.2500  59.0000 Du        
  11056 ****        34.5000  17.2500  59.2500 Du        
  11057 ****        34.5000  17.2500  59.5000 Du        
  11058 ****        34.5000  17.5000  57.7500 Du        
  11059 ****        34.5000  17.5000  58.0000 Du        
  11060 ****        34.5000  17.5000  58.2500 Du        
  11061 ****        34.5000  17.5000  58.5000 Du        
  11062 ****        34.5000  17.5000  58.7500 Du        
  11063 ****        34.5000  17.5000  59.0000 Du        
  11064 ****        34.5000  17.5000  59.2500 Du        
  11065 ****        34.5000  17.5000  59.5000 Du        
  11066 ****        34.5000  17.5000  59.7500 Du        
  11067 ****        34.5000  17.7500  57.7500 Du        
  11068 ****        34.5000  17.7500  58.0000 Du        
  11069 ****        34.5000  17.7500  58.2500 Du        
  11070 ****        34.5000  17.7500  58.5000 Du        
  11071 ****        34.5000  17.7500  58.7500 Du        
  11072 ****        34.5000  17.7500  59.0000 Du        
  11073 ****        34.5000  17.7500  59.2500 Du        
  11074 ****        34.5000  17.7500  59.5000 Du        
  11075 ****        34.5000  17.7500  59.7500 Du        
  11076 ****        34.5000  17.7500  60.0000 Du        
  11077 ****        34.5000  18.0000  57.7500 Du        
  11078 ****        34.5000  18.0000  58.0000 Du        
  11079 ****        34.5000  18.0000  58.2500 Du        
  11080 ****        34.5000  18.0000  58.5000 Du        
  11081 ****        34.5000  18.0000  58.7500 Du        
  11082 ****        34.5000  18.0000  59.0000 Du        
  11083 ****        34.5000  18.0000  59.2500 Du        
  11084 ****        34.5000  18.0000  59.5000 Du        
  11085 ****        34.5000  18.0000  59.7500 Du        
  11086 ****        34.5000  18.0000  60.0000 Du        
  11087 ****        34.5000  18.0000  60.2500 Du        
  11088 ****        34.5000  18.2500  57.7500 Du        
  11089 ****        34.5000  18.2500  58.0000 Du        
  11090 ****        34.5000  18.2500  58.2500 Du        
  11091 ****        34.5000  18.2500  58.5000 Du        
  11092 ****        34.5000  18.2500  58.7500 Du        
  11093 ****        34.5000  18.2500  59.0000 Du        
  11094 ****        34.5000  18.2500  59.2500 Du        
  11095 ****        34.5000  18.2500  59.5000 Du        
  11096 ****        34.5000  18.2500  59.7500 Du        
  11097 ****        34.5000  18.2500  60.0000 Du        
  11098 ****        34.5000  18.2500  60.2500 Du        
  11099 ****        34.5000  18.5000  57.7500 Du        
  11100 ****        34.5000  18.5000  58.0000 Du        
  11101 ****        34.5000  18.5000  58.2500 Du        
  11102 ****        34.5000  18.5000  58.5000 Du        
  11103 ****        34.5000  18.5000  58.7500 Du        
  11104 ****        34.5000  18.5000  59.0000 Du        
  11105 ****        34.5000  18.5000  59.2500 Du        
  11106 ****        34.5000  18.5000  59.5000 Du        
  11107 ****        34.5000  18.5000  59.7500 Du        
  11108 ****        34.5000  18.5000  60.0000 Du        
  11109 ****        34.5000  18.7500  57.7500 Du        
  11110 ****        34.5000  18.7500  58.0000 Du        
  11111 ****        34.5000  18.7500  58.2500 Du        
  11112 ****        34.5000  18.7500  58.5000 Du        
  11113 ****        34.5000  18.7500  58.7500 Du        
  11114 ****        34.5000  18.7500  59.0000 Du        
  11115 ****        34.5000  18.7500  59.2500 Du        
  11116 ****        34.5000  18.7500  59.5000 Du        
  11117 ****        34.5000  18.7500  59.7500 Du        
  11118 ****        34.5000  18.7500  60.0000 Du        
  11119 ****        34.5000  19.0000  57.7500 Du        
  11120 ****        34.5000  19.0000  58.0000 Du        
  11121 ****        34.5000  19.0000  58.2500 Du        
  11122 ****        34.5000  19.0000  58.5000 Du        
  11123 ****        34.5000  19.0000  58.7500 Du        
  11124 ****        34.5000  19.0000  59.0000 Du        
  11125 ****        34.5000  19.0000  59.2500 Du        
  11126 ****        34.5000  19.0000  59.5000 Du        
  11127 ****        34.5000  19.0000  59.7500 Du        
  11128 ****        34.5000  19.0000  60.0000 Du        
  11129 ****        34.5000  19.2500  57.7500 Du        
  11130 ****        34.5000  19.2500  58.0000 Du        
  11131 ****        34.5000  19.2500  58.2500 Du        
  11132 ****        34.5000  19.2500  58.5000 Du        
  11133 ****        34.5000  19.2500  58.7500 Du        
  11134 ****        34.5000  19.2500  59.0000 Du        
  11135 ****        34.5000  19.2500  59.2500 Du        
  11136 ****        34.5000  19.2500  59.5000 Du        
  11137 ****        34.5000  19.2500  59.7500 Du        
  11138 ****        34.5000  19.2500  60.0000 Du        
  11139 ****        34.5000  19.5000  58.0000 Du        
  11140 ****        34.5000  19.5000  58.2500 Du        
  11141 ****        34.5000  19.5000  58.5000 Du        
  11142 ****        34.5000  19.5000  58.7500 Du        
  11143 ****        34.5000  19.5000  59.0000 Du        
  11144 ****        34.5000  19.5000  59.2500 Du        
  11145 ****        34.5000  19.5000  59.5000 Du        
  11146 ****        34.5000  19.5000  59.7500 Du        
  11147 ****        34.5000  19.5000  60.0000 Du        
  11148 ****        34.5000  19.7500  58.0000 Du        
  11149 ****        34.5000  19.7500  58.2500 Du        
  11150 ****        34.5000  19.7500  58.5000 Du        
  11151 ****        34.5000  19.7500  58.7500 Du        
  11152 ****        34.5000  19.7500  59.0000 Du        
  11153 ****        34.5000  19.7500  59.2500 Du        
  11154 ****        34.5000  19.7500  59.5000 Du        
  11155 ****        34.5000  19.7500  59.7500 Du        
  11156 ****        34.5000  19.7500  60.0000 Du        
  11157 ****        34.5000  20.0000  58.2500 Du        
  11158 ****        34.5000  20.0000  58.5000 Du        
  11159 ****        34.5000  20.0000  58.7500 Du        
  11160 ****        34.5000  20.0000  59.0000 Du        
  11161 ****        34.5000  20.0000  59.2500 Du        
  11162 ****        34.5000  20.0000  59.5000 Du        
  11163 ****        34.5000  20.0000  59.7500 Du        
  11164 ****        34.5000  20.0000  60.0000 Du        
  11165 ****        34.5000  20.2500  58.7500 Du        
  11166 ****        34.5000  20.2500  59.0000 Du        
  11167 ****        34.5000  20.2500  59.2500 Du        
  11168 ****        34.5000  20.2500  59.5000 Du        
  11169 ****        34.5000  20.2500  59.7500 Du        
  11170 ****        34.5000  20.2500  60.0000 Du        
  11171 ****        34.5000  20.5000  59.0000 Du        
  11172 ****        34.5000  20.5000  59.2500 Du        
  11173 ****        34.5000  20.5000  59.5000 Du        
  11174 ****        34.5000  20.5000  59.7500 Du        
  11175 ****        34.5000  20.5000  60.0000 Du        
  11176 ****        34.5000  20.7500  59.0000 Du        
  11177 ****        34.5000  20.7500  59.2500 Du        
  11178 ****        34.5000  20.7500  59.7500 Du        
  11179 ****        34.5000  20.7500  60.0000 Du        
  11180 ****        34.5000  21.0000  59.0000 Du        
  11181 ****        34.5000  21.0000  59.2500 Du        
  11182 ****        34.5000  21.0000  59.7500 Du        
  11183 ****        34.5000  21.0000  60.0000 Du        
  11184 ****        34.5000  21.2500  60.0000 Du        
  11185 ****        34.5000  29.7500  52.5000 Du        
  11186 ****        34.5000  29.7500  52.7500 Du        
  11187 ****        34.5000  30.0000  52.5000 Du        
  11188 ****        34.5000  30.0000  52.7500 Du        
  11189 ****        34.5000  30.0000  53.0000 Du        
  11190 ****        34.5000  30.2500  52.5000 Du        
  11191 ****        34.5000  30.2500  52.7500 Du        
  11192 ****        34.5000  30.2500  53.0000 Du        
  11193 ****        34.5000  30.2500  53.2500 Du        
  11194 ****        34.5000  30.2500  53.5000 Du        
  11195 ****        34.5000  30.5000  52.5000 Du        
  11196 ****        34.5000  30.5000  52.7500 Du        
  11197 ****        34.5000  30.5000  53.0000 Du        
  11198 ****        34.5000  30.5000  53.2500 Du        
  11199 ****        34.5000  30.5000  53.5000 Du        
  11200 ****        34.5000  30.5000  53.7500 Du        
  11201 ****        34.5000  30.7500  52.5000 Du        
  11202 ****        34.5000  30.7500  52.7500 Du        
  11203 ****        34.5000  30.7500  53.0000 Du        
  11204 ****        34.5000  30.7500  53.2500 Du        
  11205 ****        34.5000  30.7500  53.5000 Du        
  11206 ****        34.5000  30.7500  53.7500 Du        
  11207 ****        34.5000  30.7500  54.0000 Du        
  11208 ****        34.5000  31.0000  52.5000 Du        
  11209 ****        34.5000  31.0000  52.7500 Du        
  11210 ****        34.5000  31.0000  53.0000 Du        
  11211 ****        34.5000  31.0000  53.2500 Du        
  11212 ****        34.5000  31.0000  53.5000 Du        
  11213 ****        34.5000  31.0000  53.7500 Du        
  11214 ****        34.5000  31.0000  54.0000 Du        
  11215 ****        34.5000  31.0000  54.2500 Du        
  11216 ****        34.5000  31.2500  52.5000 Du        
  11217 ****        34.5000  31.2500  52.7500 Du        
  11218 ****        34.5000  31.2500  53.0000 Du        
  11219 ****        34.5000  31.2500  53.2500 Du        
  11220 ****        34.5000  31.2500  53.5000 Du        
  11221 ****        34.5000  31.2500  53.7500 Du        
  11222 ****        34.5000  31.2500  54.0000 Du        
  11223 ****        34.5000  31.2500  54.2500 Du        
  11224 ****        34.5000  31.2500  54.5000 Du        
  11225 ****        34.5000  31.2500  54.7500 Du        
  11226 ****        34.5000  31.5000  52.7500 Du        
  11227 ****        34.5000  31.5000  53.0000 Du        
  11228 ****        34.5000  31.5000  53.2500 Du        
  11229 ****        34.5000  31.5000  53.5000 Du        
  11230 ****        34.5000  31.5000  53.7500 Du        
  11231 ****        34.5000  31.5000  54.0000 Du        
  11232 ****        34.5000  31.5000  54.2500 Du        
  11233 ****        34.5000  31.5000  54.5000 Du        
  11234 ****        34.5000  31.5000  54.7500 Du        
  11235 ****        34.5000  31.5000  55.0000 Du        
  11236 ****        34.5000  31.7500  52.7500 Du        
  11237 ****        34.5000  31.7500  53.0000 Du        
  11238 ****        34.5000  31.7500  53.2500 Du        
  11239 ****        34.5000  31.7500  53.5000 Du        
  11240 ****        34.5000  31.7500  53.7500 Du        
  11241 ****        34.5000  31.7500  54.0000 Du        
  11242 ****        34.5000  31.7500  54.2500 Du        
  11243 ****        34.5000  31.7500  54.5000 Du        
  11244 ****        34.5000  31.7500  54.7500 Du        
  11245 ****        34.5000  31.7500  55.0000 Du        
  11246 ****        34.5000  31.7500  55.2500 Du        
  11247 ****        34.5000  32.0000  52.7500 Du        
  11248 ****        34.5000  32.0000  53.0000 Du        
  11249 ****        34.5000  32.0000  53.2500 Du        
  11250 ****        34.5000  32.0000  53.5000 Du        
  11251 ****        34.5000  32.0000  53.7500 Du        
  11252 ****        34.5000  32.0000  54.0000 Du        
  11253 ****        34.5000  32.0000  54.2500 Du        
  11254 ****        34.5000  32.0000  54.5000 Du        
  11255 ****        34.5000  32.0000  54.7500 Du        
  11256 ****        34.5000  32.0000  55.0000 Du        
  11257 ****        34.5000  32.0000  55.2500 Du        
  11258 ****        34.5000  32.2500  53.0000 Du        
  11259 ****        34.5000  32.2500  53.2500 Du        
  11260 ****        34.5000  32.2500  53.5000 Du        
  11261 ****        34.5000  32.2500  53.7500 Du        
  11262 ****        34.5000  32.2500  54.0000 Du        
  11263 ****        34.5000  32.2500  54.2500 Du        
  11264 ****        34.5000  32.2500  54.5000 Du        
  11265 ****        34.5000  32.2500  54.7500 Du        
  11266 ****        34.5000  32.2500  55.0000 Du        
  11267 ****        34.5000  32.5000  53.2500 Du        
  11268 ****        34.5000  32.5000  53.5000 Du        
  11269 ****        34.5000  32.5000  53.7500 Du        
  11270 ****        34.5000  32.5000  54.0000 Du        
  11271 ****        34.5000  32.5000  54.2500 Du        
  11272 ****        34.5000  32.5000  54.5000 Du        
  11273 ****        34.5000  32.5000  54.7500 Du        
  11274 ****        34.5000  32.7500  53.5000 Du        
  11275 ****        34.5000  32.7500  53.7500 Du        
  11276 ****        34.5000  32.7500  54.0000 Du        
  11277 ****        34.5000  37.5000  58.2500 Du        
  11278 ****        34.5000  37.5000  58.5000 Du        
  11279 ****        34.5000  41.0000  44.5000 Du        
  11280 ****        34.5000  41.2500  44.2500 Du        
  11281 ****        34.5000  41.2500  44.5000 Du        
  11282 ****        34.5000  41.2500  44.7500 Du        
  11283 ****        34.5000  41.5000  44.5000 Du        
  11284 ****        34.5000  41.5000  44.7500 Du        
  11285 ****        34.5000  41.7500  44.5000 Du        
  11286 ****        34.5000  41.7500  44.7500 Du        
  11287 ****        34.5000  41.7500  45.0000 Du        
  11288 ****        34.5000  41.7500  45.2500 Du        
  11289 ****        34.5000  42.0000  44.5000 Du        
  11290 ****        34.5000  42.0000  44.7500 Du        
  11291 ****        34.5000  42.0000  45.0000 Du        
  11292 ****        34.5000  42.0000  45.2500 Du        
  11293 ****        34.5000  42.0000  45.5000 Du        
  11294 ****        34.5000  42.0000  45.7500 Du        
  11295 ****        34.5000  42.2500  44.5000 Du        
  11296 ****        34.5000  42.2500  44.7500 Du        
  11297 ****        34.5000  42.2500  45.0000 Du        
  11298 ****        34.5000  42.2500  45.2500 Du        
  11299 ****        34.5000  42.2500  45.5000 Du        
  11300 ****        34.5000  42.2500  45.7500 Du        
  11301 ****        34.5000  42.2500  46.0000 Du        
  11302 ****        34.5000  42.2500  46.2500 Du        
  11303 ****        34.5000  42.2500  46.5000 Du        
  11304 ****        34.5000  42.2500  46.7500 Du        
  11305 ****        34.5000  42.2500  47.0000 Du        
  11306 ****        34.5000  42.2500  47.2500 Du        
  11307 ****        34.5000  42.2500  47.5000 Du        
  11308 ****        34.5000  42.2500  47.7500 Du        
  11309 ****        34.5000  42.5000  44.5000 Du        
  11310 ****        34.5000  42.5000  44.7500 Du        
  11311 ****        34.5000  42.5000  45.0000 Du        
  11312 ****        34.5000  42.5000  45.2500 Du        
  11313 ****        34.5000  42.5000  45.5000 Du        
  11314 ****        34.5000  42.5000  45.7500 Du        
  11315 ****        34.5000  42.5000  46.0000 Du        
  11316 ****        34.5000  42.5000  46.2500 Du        
  11317 ****        34.5000  42.5000  46.5000 Du        
  11318 ****        34.5000  42.5000  46.7500 Du        
  11319 ****        34.5000  42.5000  47.0000 Du        
  11320 ****        34.5000  42.5000  47.2500 Du        
  11321 ****        34.5000  42.5000  47.5000 Du        
  11322 ****        34.5000  42.5000  47.7500 Du        
  11323 ****        34.5000  42.5000  48.0000 Du        
  11324 ****        34.5000  42.7500  44.5000 Du        
  11325 ****        34.5000  42.7500  44.7500 Du        
  11326 ****        34.5000  42.7500  45.0000 Du        
  11327 ****        34.5000  42.7500  45.2500 Du        
  11328 ****        34.5000  42.7500  45.5000 Du        
  11329 ****        34.5000  42.7500  45.7500 Du        
  11330 ****        34.5000  42.7500  46.0000 Du        
  11331 ****        34.5000  42.7500  46.2500 Du        
  11332 ****        34.5000  42.7500  46.5000 Du        
  11333 ****        34.5000  42.7500  46.7500 Du        
  11334 ****        34.5000  42.7500  47.0000 Du        
  11335 ****        34.5000  42.7500  47.2500 Du        
  11336 ****        34.5000  42.7500  47.5000 Du        
  11337 ****        34.5000  42.7500  47.7500 Du        
  11338 ****        34.5000  42.7500  48.0000 Du        
  11339 ****        34.5000  43.0000  44.7500 Du        
  11340 ****        34.5000  43.0000  45.0000 Du        
  11341 ****        34.5000  43.0000  45.2500 Du        
  11342 ****        34.5000  43.0000  45.5000 Du        
  11343 ****        34.5000  43.0000  45.7500 Du        
  11344 ****        34.5000  43.0000  46.0000 Du        
  11345 ****        34.5000  43.0000  46.2500 Du        
  11346 ****        34.5000  43.0000  46.5000 Du        
  11347 ****        34.5000  43.0000  46.7500 Du        
  11348 ****        34.5000  43.0000  47.0000 Du        
  11349 ****        34.5000  43.0000  47.2500 Du        
  11350 ****        34.5000  43.0000  47.5000 Du        
  11351 ****        34.5000  43.0000  47.7500 Du        
  11352 ****        34.5000  43.2500  44.7500 Du        
  11353 ****        34.5000  43.2500  45.0000 Du        
  11354 ****        34.5000  43.2500  45.2500 Du        
  11355 ****        34.5000  43.2500  45.5000 Du        
  11356 ****        34.5000  43.2500  45.7500 Du        
  11357 ****        34.5000  43.2500  46.0000 Du        
  11358 ****        34.5000  43.2500  46.2500 Du        
  11359 ****        34.5000  43.2500  46.5000 Du        
  11360 ****        34.5000  43.2500  46.7500 Du        
  11361 ****        34.5000  43.2500  47.0000 Du        
  11362 ****        34.5000  43.2500  47.2500 Du        
  11363 ****        34.5000  43.2500  47.5000 Du        
  11364 ****        34.5000  43.2500  47.7500 Du        
  11365 ****        34.5000  43.5000  45.0000 Du        
  11366 ****        34.5000  43.5000  45.2500 Du        
  11367 ****        34.5000  43.5000  45.5000 Du        
  11368 ****        34.5000  43.5000  45.7500 Du        
  11369 ****        34.5000  43.5000  46.0000 Du        
  11370 ****        34.5000  43.5000  46.2500 Du        
  11371 ****        34.5000  43.5000  46.5000 Du        
  11372 ****        34.5000  43.5000  46.7500 Du        
  11373 ****        34.5000  43.5000  47.0000 Du        
  11374 ****        34.5000  43.5000  47.2500 Du        
  11375 ****        34.5000  43.5000  47.5000 Du        
  11376 ****        34.5000  43.7500  45.2500 Du        
  11377 ****        34.5000  43.7500  45.5000 Du        
  11378 ****        34.5000  43.7500  45.7500 Du        
  11379 ****        34.5000  43.7500  46.0000 Du        
  11380 ****        34.5000  43.7500  46.2500 Du        
  11381 ****        34.5000  43.7500  46.5000 Du        
  11382 ****        34.5000  43.7500  46.7500 Du        
  11383 ****        34.5000  43.7500  47.0000 Du        
  11384 ****        34.5000  43.7500  47.2500 Du        
  11385 ****        34.5000  44.0000  45.5000 Du        
  11386 ****        34.5000  44.0000  45.7500 Du        
  11387 ****        34.5000  44.0000  46.0000 Du        
  11388 ****        34.5000  44.0000  46.2500 Du        
  11389 ****        34.5000  44.0000  46.5000 Du        
  11390 ****        34.5000  44.0000  46.7500 Du        
  11391 ****        34.5000  44.0000  47.0000 Du        
  11392 ****        34.5000  44.2500  45.7500 Du        
  11393 ****        34.5000  44.2500  46.0000 Du        
  11394 ****        34.7500  15.0000  57.0000 Du        
  11395 ****        34.7500  15.0000  57.2500 Du        
  11396 ****        34.7500  15.0000  57.5000 Du        
  11397 ****        34.7500  15.0000  57.7500 Du        
  11398 ****        34.7500  15.0000  58.0000 Du        
  11399 ****        34.7500  15.0000  58.2500 Du        
  11400 ****        34.7500  15.2500  57.2500 Du        
  11401 ****        34.7500  15.2500  57.5000 Du        
  11402 ****        34.7500  15.2500  57.7500 Du        
  11403 ****        34.7500  15.2500  58.0000 Du        
  11404 ****        34.7500  15.2500  58.2500 Du        
  11405 ****        34.7500  15.5000  57.2500 Du        
  11406 ****        34.7500  15.5000  57.5000 Du        
  11407 ****        34.7500  15.5000  57.7500 Du        
  11408 ****        34.7500  15.5000  58.0000 Du        
  11409 ****        34.7500  15.5000  58.2500 Du        
  11410 ****        34.7500  15.5000  58.5000 Du        
  11411 ****        34.7500  15.7500  57.5000 Du        
  11412 ****        34.7500  15.7500  57.7500 Du        
  11413 ****        34.7500  15.7500  58.0000 Du        
  11414 ****        34.7500  15.7500  58.2500 Du        
  11415 ****        34.7500  15.7500  58.5000 Du        
  11416 ****        34.7500  15.7500  58.7500 Du        
  11417 ****        34.7500  16.0000  57.5000 Du        
  11418 ****        34.7500  16.0000  57.7500 Du        
  11419 ****        34.7500  16.0000  58.0000 Du        
  11420 ****        34.7500  16.0000  58.2500 Du        
  11421 ****        34.7500  16.0000  58.5000 Du        
  11422 ****        34.7500  16.0000  58.7500 Du        
  11423 ****        34.7500  16.0000  59.0000 Du        
  11424 ****        34.7500  16.2500  57.7500 Du        
  11425 ****        34.7500  16.2500  58.0000 Du        
  11426 ****        34.7500  16.2500  58.2500 Du        
  11427 ****        34.7500  16.2500  58.5000 Du        
  11428 ****        34.7500  16.2500  58.7500 Du        
  11429 ****        34.7500  16.2500  59.0000 Du        
  11430 ****        34.7500  16.5000  57.7500 Du        
  11431 ****        34.7500  16.5000  58.0000 Du        
  11432 ****        34.7500  16.5000  58.2500 Du        
  11433 ****        34.7500  16.5000  58.5000 Du        
  11434 ****        34.7500  16.5000  58.7500 Du        
  11435 ****        34.7500  16.5000  59.0000 Du        
  11436 ****        34.7500  16.5000  59.2500 Du        
  11437 ****        34.7500  16.7500  57.7500 Du        
  11438 ****        34.7500  16.7500  58.0000 Du        
  11439 ****        34.7500  16.7500  58.2500 Du        
  11440 ****        34.7500  16.7500  58.5000 Du        
  11441 ****        34.7500  16.7500  58.7500 Du        
  11442 ****        34.7500  16.7500  59.0000 Du        
  11443 ****        34.7500  16.7500  59.2500 Du        
  11444 ****        34.7500  17.0000  57.7500 Du        
  11445 ****        34.7500  17.0000  58.0000 Du        
  11446 ****        34.7500  17.0000  58.2500 Du        
  11447 ****        34.7500  17.0000  58.5000 Du        
  11448 ****        34.7500  17.0000  58.7500 Du        
  11449 ****        34.7500  17.0000  59.0000 Du        
  11450 ****        34.7500  17.0000  59.2500 Du        
  11451 ****        34.7500  17.0000  59.5000 Du        
  11452 ****        34.7500  17.2500  57.7500 Du        
  11453 ****        34.7500  17.2500  58.0000 Du        
  11454 ****        34.7500  17.2500  58.2500 Du        
  11455 ****        34.7500  17.2500  58.5000 Du        
  11456 ****        34.7500  17.2500  58.7500 Du        
  11457 ****        34.7500  17.2500  59.0000 Du        
  11458 ****        34.7500  17.2500  59.2500 Du        
  11459 ****        34.7500  17.2500  59.5000 Du        
  11460 ****        34.7500  17.2500  59.7500 Du        
  11461 ****        34.7500  17.5000  57.7500 Du        
  11462 ****        34.7500  17.5000  58.0000 Du        
  11463 ****        34.7500  17.5000  58.2500 Du        
  11464 ****        34.7500  17.5000  58.5000 Du        
  11465 ****        34.7500  17.5000  58.7500 Du        
  11466 ****        34.7500  17.5000  59.0000 Du        
  11467 ****        34.7500  17.5000  59.2500 Du        
  11468 ****        34.7500  17.5000  59.5000 Du        
  11469 ****        34.7500  17.5000  59.7500 Du        
  11470 ****        34.7500  17.5000  60.0000 Du        
  11471 ****        34.7500  17.7500  57.7500 Du        
  11472 ****        34.7500  17.7500  58.0000 Du        
  11473 ****        34.7500  17.7500  58.2500 Du        
  11474 ****        34.7500  17.7500  58.5000 Du        
  11475 ****        34.7500  17.7500  58.7500 Du        
  11476 ****        34.7500  17.7500  59.0000 Du        
  11477 ****        34.7500  17.7500  59.2500 Du        
  11478 ****        34.7500  17.7500  59.5000 Du        
  11479 ****        34.7500  17.7500  59.7500 Du        
  11480 ****        34.7500  17.7500  60.0000 Du        
  11481 ****        34.7500  18.0000  57.7500 Du        
  11482 ****        34.7500  18.0000  58.0000 Du        
  11483 ****        34.7500  18.0000  58.2500 Du        
  11484 ****        34.7500  18.0000  58.5000 Du        
  11485 ****        34.7500  18.0000  58.7500 Du        
  11486 ****        34.7500  18.0000  59.0000 Du        
  11487 ****        34.7500  18.0000  59.2500 Du        
  11488 ****        34.7500  18.0000  59.5000 Du        
  11489 ****        34.7500  18.0000  59.7500 Du        
  11490 ****        34.7500  18.0000  60.0000 Du        
  11491 ****        34.7500  18.0000  60.2500 Du        
  11492 ****        34.7500  18.2500  57.7500 Du        
  11493 ****        34.7500  18.2500  58.0000 Du        
  11494 ****        34.7500  18.2500  58.2500 Du        
  11495 ****        34.7500  18.2500  58.5000 Du        
  11496 ****        34.7500  18.2500  58.7500 Du        
  11497 ****        34.7500  18.2500  59.0000 Du        
  11498 ****        34.7500  18.2500  59.2500 Du        
  11499 ****        34.7500  18.2500  59.5000 Du        
  11500 ****        34.7500  18.2500  59.7500 Du        
  11501 ****        34.7500  18.2500  60.0000 Du        
  11502 ****        34.7500  18.5000  57.7500 Du        
  11503 ****        34.7500  18.5000  58.0000 Du        
  11504 ****        34.7500  18.5000  58.2500 Du        
  11505 ****        34.7500  18.5000  58.5000 Du        
  11506 ****        34.7500  18.5000  58.7500 Du        
  11507 ****        34.7500  18.5000  59.0000 Du        
  11508 ****        34.7500  18.5000  59.2500 Du        
  11509 ****        34.7500  18.5000  59.5000 Du        
  11510 ****        34.7500  18.5000  59.7500 Du        
  11511 ****        34.7500  18.5000  60.0000 Du        
  11512 ****        34.7500  18.7500  57.7500 Du        
  11513 ****        34.7500  18.7500  58.0000 Du        
  11514 ****        34.7500  18.7500  58.2500 Du        
  11515 ****        34.7500  18.7500  58.5000 Du        
  11516 ****        34.7500  18.7500  58.7500 Du        
  11517 ****        34.7500  18.7500  59.0000 Du        
  11518 ****        34.7500  18.7500  59.2500 Du        
  11519 ****        34.7500  18.7500  59.5000 Du        
  11520 ****        34.7500  18.7500  59.7500 Du        
  11521 ****        34.7500  18.7500  60.0000 Du        
  11522 ****        34.7500  19.0000  58.0000 Du        
  11523 ****        34.7500  19.0000  58.2500 Du        
  11524 ****        34.7500  19.0000  58.5000 Du        
  11525 ****        34.7500  19.0000  58.7500 Du        
  11526 ****        34.7500  19.0000  59.0000 Du        
  11527 ****        34.7500  19.0000  59.2500 Du        
  11528 ****        34.7500  19.0000  59.5000 Du        
  11529 ****        34.7500  19.0000  59.7500 Du        
  11530 ****        34.7500  19.0000  60.0000 Du        
  11531 ****        34.7500  19.2500  58.0000 Du        
  11532 ****        34.7500  19.2500  58.2500 Du        
  11533 ****        34.7500  19.2500  58.5000 Du        
  11534 ****        34.7500  19.2500  58.7500 Du        
  11535 ****        34.7500  19.2500  59.0000 Du        
  11536 ****        34.7500  19.2500  59.2500 Du        
  11537 ****        34.7500  19.2500  59.5000 Du        
  11538 ****        34.7500  19.2500  59.7500 Du        
  11539 ****        34.7500  19.2500  60.0000 Du        
  11540 ****        34.7500  19.5000  58.2500 Du        
  11541 ****        34.7500  19.5000  58.5000 Du        
  11542 ****        34.7500  19.5000  58.7500 Du        
  11543 ****        34.7500  19.5000  59.0000 Du        
  11544 ****        34.7500  19.5000  59.2500 Du        
  11545 ****        34.7500  19.5000  59.5000 Du        
  11546 ****        34.7500  19.5000  59.7500 Du        
  11547 ****        34.7500  19.5000  60.0000 Du        
  11548 ****        34.7500  19.7500  58.5000 Du        
  11549 ****        34.7500  19.7500  58.7500 Du        
  11550 ****        34.7500  19.7500  59.0000 Du        
  11551 ****        34.7500  19.7500  59.2500 Du        
  11552 ****        34.7500  19.7500  59.5000 Du        
  11553 ****        34.7500  19.7500  59.7500 Du        
  11554 ****        34.7500  19.7500  60.0000 Du        
  11555 ****        34.7500  20.0000  58.7500 Du        
  11556 ****        34.7500  20.0000  59.0000 Du        
  11557 ****        34.7500  20.0000  59.2500 Du        
  11558 ****        34.7500  20.0000  59.5000 Du        
  11559 ****        34.7500  20.0000  59.7500 Du        
  11560 ****        34.7500  20.0000  60.0000 Du        
  11561 ****        34.7500  20.2500  59.0000 Du        
  11562 ****        34.7500  20.2500  59.2500 Du        
  11563 ****        34.7500  20.2500  59.5000 Du        
  11564 ****        34.7500  20.2500  59.7500 Du        
  11565 ****        34.7500  20.2500  60.0000 Du        
  11566 ****        34.7500  20.5000  59.2500 Du        
  11567 ****        34.7500  20.5000  59.5000 Du        
  11568 ****        34.7500  20.5000  59.7500 Du        
  11569 ****        34.7500  20.5000  60.0000 Du        
  11570 ****        34.7500  20.7500  59.0000 Du        
  11571 ****        34.7500  20.7500  59.2500 Du        
  11572 ****        34.7500  20.7500  59.7500 Du        
  11573 ****        34.7500  20.7500  60.0000 Du        
  11574 ****        34.7500  21.0000  59.2500 Du        
  11575 ****        34.7500  21.0000  59.7500 Du        
  11576 ****        34.7500  21.0000  60.0000 Du        
  11577 ****        34.7500  21.0000  60.2500 Du        
  11578 ****        34.7500  21.2500  60.0000 Du        
  11579 ****        34.7500  29.7500  52.5000 Du        
  11580 ****        34.7500  29.7500  52.7500 Du        
  11581 ****        34.7500  30.0000  52.5000 Du        
  11582 ****        34.7500  30.0000  52.7500 Du        
  11583 ****        34.7500  30.0000  53.0000 Du        
  11584 ****        34.7500  30.2500  52.5000 Du        
  11585 ****        34.7500  30.2500  52.7500 Du        
  11586 ****        34.7500  30.2500  53.0000 Du        
  11587 ****        34.7500  30.2500  53.2500 Du        
  11588 ****        34.7500  30.5000  52.7500 Du        
  11589 ****        34.7500  30.5000  53.0000 Du        
  11590 ****        34.7500  30.5000  53.2500 Du        
  11591 ****        34.7500  30.5000  53.5000 Du        
  11592 ****        34.7500  30.5000  53.7500 Du        
  11593 ****        34.7500  30.7500  52.7500 Du        
  11594 ****        34.7500  30.7500  53.0000 Du        
  11595 ****        34.7500  30.7500  53.2500 Du        
  11596 ****        34.7500  30.7500  53.5000 Du        
  11597 ****        34.7500  30.7500  53.7500 Du        
  11598 ****        34.7500  30.7500  54.0000 Du        
  11599 ****        34.7500  31.0000  52.7500 Du        
  11600 ****        34.7500  31.0000  53.0000 Du        
  11601 ****        34.7500  31.0000  53.2500 Du        
  11602 ****        34.7500  31.0000  53.5000 Du        
  11603 ****        34.7500  31.0000  53.7500 Du        
  11604 ****        34.7500  31.0000  54.0000 Du        
  11605 ****        34.7500  31.0000  54.2500 Du        
  11606 ****        34.7500  31.2500  52.7500 Du        
  11607 ****        34.7500  31.2500  53.0000 Du        
  11608 ****        34.7500  31.2500  53.2500 Du        
  11609 ****        34.7500  31.2500  53.5000 Du        
  11610 ****        34.7500  31.2500  53.7500 Du        
  11611 ****        34.7500  31.2500  54.0000 Du        
  11612 ****        34.7500  31.2500  54.2500 Du        
  11613 ****        34.7500  31.2500  54.5000 Du        
  11614 ****        34.7500  31.2500  54.7500 Du        
  11615 ****        34.7500  31.5000  52.7500 Du        
  11616 ****        34.7500  31.5000  53.0000 Du        
  11617 ****        34.7500  31.5000  53.2500 Du        
  11618 ****        34.7500  31.5000  53.5000 Du        
  11619 ****        34.7500  31.5000  53.7500 Du        
  11620 ****        34.7500  31.5000  54.0000 Du        
  11621 ****        34.7500  31.5000  54.2500 Du        
  11622 ****        34.7500  31.5000  54.5000 Du        
  11623 ****        34.7500  31.5000  54.7500 Du        
  11624 ****        34.7500  31.5000  55.0000 Du        
  11625 ****        34.7500  31.7500  52.7500 Du        
  11626 ****        34.7500  31.7500  53.0000 Du        
  11627 ****        34.7500  31.7500  53.2500 Du        
  11628 ****        34.7500  31.7500  53.5000 Du        
  11629 ****        34.7500  31.7500  53.7500 Du        
  11630 ****        34.7500  31.7500  54.0000 Du        
  11631 ****        34.7500  31.7500  54.2500 Du        
  11632 ****        34.7500  31.7500  54.5000 Du        
  11633 ****        34.7500  31.7500  54.7500 Du        
  11634 ****        34.7500  31.7500  55.0000 Du        
  11635 ****        34.7500  31.7500  55.2500 Du        
  11636 ****        34.7500  32.0000  52.7500 Du        
  11637 ****        34.7500  32.0000  53.0000 Du        
  11638 ****        34.7500  32.0000  53.2500 Du        
  11639 ****        34.7500  32.0000  53.5000 Du        
  11640 ****        34.7500  32.0000  53.7500 Du        
  11641 ****        34.7500  32.0000  54.0000 Du        
  11642 ****        34.7500  32.0000  54.2500 Du        
  11643 ****        34.7500  32.0000  54.5000 Du        
  11644 ****        34.7500  32.0000  54.7500 Du        
  11645 ****        34.7500  32.0000  55.0000 Du        
  11646 ****        34.7500  32.0000  55.2500 Du        
  11647 ****        34.7500  32.2500  53.0000 Du        
  11648 ****        34.7500  32.2500  53.2500 Du        
  11649 ****        34.7500  32.2500  53.5000 Du        
  11650 ****        34.7500  32.2500  53.7500 Du        
  11651 ****        34.7500  32.2500  54.0000 Du        
  11652 ****        34.7500  32.2500  54.2500 Du        
  11653 ****        34.7500  32.2500  54.5000 Du        
  11654 ****        34.7500  32.2500  54.7500 Du        
  11655 ****        34.7500  32.2500  55.0000 Du        
  11656 ****        34.7500  32.5000  53.2500 Du        
  11657 ****        34.7500  32.5000  53.5000 Du        
  11658 ****        34.7500  32.5000  53.7500 Du        
  11659 ****        34.7500  32.5000  54.0000 Du        
  11660 ****        34.7500  32.5000  54.2500 Du        
  11661 ****        34.7500  32.5000  54.5000 Du        
  11662 ****        34.7500  32.5000  54.7500 Du        
  11663 ****        34.7500  32.7500  53.5000 Du        
  11664 ****        34.7500  32.7500  53.7500 Du        
  11665 ****        34.7500  32.7500  54.0000 Du        
  11666 ****        34.7500  32.7500  54.2500 Du        
  11667 ****        34.7500  32.7500  54.5000 Du        
  11668 ****        34.7500  37.5000  58.0000 Du        
  11669 ****        34.7500  37.5000  58.2500 Du        
  11670 ****        34.7500  41.0000  44.2500 Du        
  11671 ****        34.7500  41.0000  44.5000 Du        
  11672 ****        34.7500  41.0000  44.7500 Du        
  11673 ****        34.7500  41.2500  44.2500 Du        
  11674 ****        34.7500  41.2500  44.5000 Du        
  11675 ****        34.7500  41.2500  44.7500 Du        
  11676 ****        34.7500  41.2500  45.0000 Du        
  11677 ****        34.7500  41.5000  44.2500 Du        
  11678 ****        34.7500  41.5000  44.5000 Du        
  11679 ****        34.7500  41.5000  44.7500 Du        
  11680 ****        34.7500  41.5000  45.0000 Du        
  11681 ****        34.7500  41.5000  45.2500 Du        
  11682 ****        34.7500  41.7500  44.2500 Du        
  11683 ****        34.7500  41.7500  44.5000 Du        
  11684 ****        34.7500  41.7500  44.7500 Du        
  11685 ****        34.7500  41.7500  45.0000 Du        
  11686 ****        34.7500  41.7500  45.2500 Du        
  11687 ****        34.7500  41.7500  45.5000 Du        
  11688 ****        34.7500  41.7500  45.7500 Du        
  11689 ****        34.7500  42.0000  44.2500 Du        
  11690 ****        34.7500  42.0000  44.5000 Du        
  11691 ****        34.7500  42.0000  44.7500 Du        
  11692 ****        34.7500  42.0000  45.0000 Du        
  11693 ****        34.7500  42.0000  45.2500 Du        
  11694 ****        34.7500  42.0000  45.5000 Du        
  11695 ****        34.7500  42.0000  45.7500 Du        
  11696 ****        34.7500  42.0000  46.0000 Du        
  11697 ****        34.7500  42.0000  46.2500 Du        
  11698 ****        34.7500  42.0000  46.5000 Du        
  11699 ****        34.7500  42.0000  46.7500 Du        
  11700 ****        34.7500  42.0000  47.0000 Du        
  11701 ****        34.7500  42.0000  47.2500 Du        
  11702 ****        34.7500  42.2500  44.5000 Du        
  11703 ****        34.7500  42.2500  44.7500 Du        
  11704 ****        34.7500  42.2500  45.0000 Du        
  11705 ****        34.7500  42.2500  45.2500 Du        
  11706 ****        34.7500  42.2500  45.5000 Du        
  11707 ****        34.7500  42.2500  45.7500 Du        
  11708 ****        34.7500  42.2500  46.0000 Du        
  11709 ****        34.7500  42.2500  46.2500 Du        
  11710 ****        34.7500  42.2500  46.5000 Du        
  11711 ****        34.7500  42.2500  46.7500 Du        
  11712 ****        34.7500  42.2500  47.0000 Du        
  11713 ****        34.7500  42.2500  47.2500 Du        
  11714 ****        34.7500  42.2500  47.5000 Du        
  11715 ****        34.7500  42.2500  47.7500 Du        
  11716 ****        34.7500  42.5000  44.5000 Du        
  11717 ****        34.7500  42.5000  44.7500 Du        
  11718 ****        34.7500  42.5000  45.0000 Du        
  11719 ****        34.7500  42.5000  45.2500 Du        
  11720 ****        34.7500  42.5000  45.5000 Du        
  11721 ****        34.7500  42.5000  45.7500 Du        
  11722 ****        34.7500  42.5000  46.0000 Du        
  11723 ****        34.7500  42.5000  46.2500 Du        
  11724 ****        34.7500  42.5000  46.5000 Du        
  11725 ****        34.7500  42.5000  46.7500 Du        
  11726 ****        34.7500  42.5000  47.0000 Du        
  11727 ****        34.7500  42.5000  47.2500 Du        
  11728 ****        34.7500  42.5000  47.5000 Du        
  11729 ****        34.7500  42.5000  47.7500 Du        
  11730 ****        34.7500  42.7500  44.5000 Du        
  11731 ****        34.7500  42.7500  44.7500 Du        
  11732 ****        34.7500  42.7500  45.0000 Du        
  11733 ****        34.7500  42.7500  45.2500 Du        
  11734 ****        34.7500  42.7500  45.5000 Du        
  11735 ****        34.7500  42.7500  45.7500 Du        
  11736 ****        34.7500  42.7500  46.0000 Du        
  11737 ****        34.7500  42.7500  46.2500 Du        
  11738 ****        34.7500  42.7500  46.5000 Du        
  11739 ****        34.7500  42.7500  46.7500 Du        
  11740 ****        34.7500  42.7500  47.0000 Du        
  11741 ****        34.7500  42.7500  47.2500 Du        
  11742 ****        34.7500  42.7500  47.5000 Du        
  11743 ****        34.7500  42.7500  47.7500 Du        
  11744 ****        34.7500  42.7500  48.0000 Du        
  11745 ****        34.7500  43.0000  44.7500 Du        
  11746 ****        34.7500  43.0000  45.0000 Du        
  11747 ****        34.7500  43.0000  45.2500 Du        
  11748 ****        34.7500  43.0000  45.5000 Du        
  11749 ****        34.7500  43.0000  45.7500 Du        
  11750 ****        34.7500  43.0000  46.0000 Du        
  11751 ****        34.7500  43.0000  46.2500 Du        
  11752 ****        34.7500  43.0000  46.5000 Du        
  11753 ****        34.7500  43.0000  46.7500 Du        
  11754 ****        34.7500  43.0000  47.0000 Du        
  11755 ****        34.7500  43.0000  47.2500 Du        
  11756 ****        34.7500  43.0000  47.5000 Du        
  11757 ****        34.7500  43.0000  47.7500 Du        
  11758 ****        34.7500  43.0000  48.0000 Du        
  11759 ****        34.7500  43.2500  44.7500 Du        
  11760 ****        34.7500  43.2500  45.0000 Du        
  11761 ****        34.7500  43.2500  45.2500 Du        
  11762 ****        34.7500  43.2500  45.5000 Du        
  11763 ****        34.7500  43.2500  45.7500 Du        
  11764 ****        34.7500  43.2500  46.0000 Du        
  11765 ****        34.7500  43.2500  46.2500 Du        
  11766 ****        34.7500  43.2500  46.5000 Du        
  11767 ****        34.7500  43.2500  46.7500 Du        
  11768 ****        34.7500  43.2500  47.0000 Du        
  11769 ****        34.7500  43.2500  47.2500 Du        
  11770 ****        34.7500  43.2500  47.5000 Du        
  11771 ****        34.7500  43.2500  47.7500 Du        
  11772 ****        34.7500  43.5000  45.0000 Du        
  11773 ****        34.7500  43.5000  45.2500 Du        
  11774 ****        34.7500  43.5000  45.5000 Du        
  11775 ****        34.7500  43.5000  45.7500 Du        
  11776 ****        34.7500  43.5000  46.0000 Du        
  11777 ****        34.7500  43.5000  46.2500 Du        
  11778 ****        34.7500  43.5000  46.5000 Du        
  11779 ****        34.7500  43.5000  46.7500 Du        
  11780 ****        34.7500  43.5000  47.0000 Du        
  11781 ****        34.7500  43.5000  47.2500 Du        
  11782 ****        34.7500  43.5000  47.5000 Du        
  11783 ****        34.7500  43.7500  45.2500 Du        
  11784 ****        34.7500  43.7500  45.5000 Du        
  11785 ****        34.7500  43.7500  45.7500 Du        
  11786 ****        34.7500  43.7500  46.0000 Du        
  11787 ****        34.7500  43.7500  46.2500 Du        
  11788 ****        34.7500  43.7500  46.5000 Du        
  11789 ****        34.7500  43.7500  46.7500 Du        
  11790 ****        34.7500  43.7500  47.0000 Du        
  11791 ****        34.7500  43.7500  47.2500 Du        
  11792 ****        34.7500  44.0000  45.5000 Du        
  11793 ****        34.7500  44.0000  45.7500 Du        
  11794 ****        34.7500  44.0000  46.0000 Du        
  11795 ****        34.7500  44.0000  46.2500 Du        
  11796 ****        34.7500  44.0000  46.5000 Du        
  11797 ****        34.7500  44.0000  46.7500 Du        
  11798 ****        34.7500  44.0000  47.0000 Du        
  11799 ****        34.7500  44.2500  45.7500 Du        
  11800 ****        35.0000  15.0000  57.0000 Du        
  11801 ****        35.0000  15.0000  57.2500 Du        
  11802 ****        35.0000  15.0000  57.5000 Du        
  11803 ****        35.0000  15.0000  57.7500 Du        
  11804 ****        35.0000  15.0000  58.0000 Du        
  11805 ****        35.0000  15.0000  58.2500 Du        
  11806 ****        35.0000  15.0000  58.5000 Du        
  11807 ****        35.0000  15.2500  57.2500 Du        
  11808 ****        35.0000  15.2500  57.5000 Du        
  11809 ****        35.0000  15.2500  57.7500 Du        
  11810 ****        35.0000  15.2500  58.0000 Du        
  11811 ****        35.0000  15.2500  58.2500 Du        
  11812 ****        35.0000  15.2500  58.5000 Du        
  11813 ****        35.0000  15.5000  57.5000 Du        
  11814 ****        35.0000  15.5000  57.7500 Du        
  11815 ****        35.0000  15.5000  58.0000 Du        
  11816 ****        35.0000  15.5000  58.2500 Du        
  11817 ****        35.0000  15.5000  58.5000 Du        
  11818 ****        35.0000  15.5000  58.7500 Du        
  11819 ****        35.0000  15.7500  57.5000 Du        
  11820 ****        35.0000  15.7500  57.7500 Du        
  11821 ****        35.0000  15.7500  58.0000 Du        
  11822 ****        35.0000  15.7500  58.2500 Du        
  11823 ****        35.0000  15.7500  58.5000 Du        
  11824 ****        35.0000  15.7500  58.7500 Du        
  11825 ****        35.0000  15.7500  59.0000 Du        
  11826 ****        35.0000  16.0000  57.5000 Du        
  11827 ****        35.0000  16.0000  57.7500 Du        
  11828 ****        35.0000  16.0000  58.0000 Du        
  11829 ****        35.0000  16.0000  58.2500 Du        
  11830 ****        35.0000  16.0000  58.5000 Du        
  11831 ****        35.0000  16.0000  58.7500 Du        
  11832 ****        35.0000  16.0000  59.0000 Du        
  11833 ****        35.0000  16.2500  57.7500 Du        
  11834 ****        35.0000  16.2500  58.0000 Du        
  11835 ****        35.0000  16.2500  58.2500 Du        
  11836 ****        35.0000  16.2500  58.5000 Du        
  11837 ****        35.0000  16.2500  58.7500 Du        
  11838 ****        35.0000  16.2500  59.0000 Du        
  11839 ****        35.0000  16.2500  59.2500 Du        
  11840 ****        35.0000  16.5000  57.7500 Du        
  11841 ****        35.0000  16.5000  58.0000 Du        
  11842 ****        35.0000  16.5000  58.2500 Du        
  11843 ****        35.0000  16.5000  58.5000 Du        
  11844 ****        35.0000  16.5000  58.7500 Du        
  11845 ****        35.0000  16.5000  59.0000 Du        
  11846 ****        35.0000  16.5000  59.2500 Du        
  11847 ****        35.0000  16.7500  57.7500 Du        
  11848 ****        35.0000  16.7500  58.0000 Du        
  11849 ****        35.0000  16.7500  58.2500 Du        
  11850 ****        35.0000  16.7500  58.5000 Du        
  11851 ****        35.0000  16.7500  58.7500 Du        
  11852 ****        35.0000  16.7500  59.0000 Du        
  11853 ****        35.0000  16.7500  59.2500 Du        
  11854 ****        35.0000  16.7500  59.5000 Du        
  11855 ****        35.0000  17.0000  57.7500 Du        
  11856 ****        35.0000  17.0000  58.0000 Du        
  11857 ****        35.0000  17.0000  58.2500 Du        
  11858 ****        35.0000  17.0000  58.5000 Du        
  11859 ****        35.0000  17.0000  58.7500 Du        
  11860 ****        35.0000  17.0000  59.0000 Du        
  11861 ****        35.0000  17.0000  59.2500 Du        
  11862 ****        35.0000  17.0000  59.5000 Du        
  11863 ****        35.0000  17.0000  59.7500 Du        
  11864 ****        35.0000  17.2500  57.7500 Du        
  11865 ****        35.0000  17.2500  58.0000 Du        
  11866 ****        35.0000  17.2500  58.2500 Du        
  11867 ****        35.0000  17.2500  58.5000 Du        
  11868 ****        35.0000  17.2500  58.7500 Du        
  11869 ****        35.0000  17.2500  59.0000 Du        
  11870 ****        35.0000  17.2500  59.2500 Du        
  11871 ****        35.0000  17.2500  59.5000 Du        
  11872 ****        35.0000  17.2500  59.7500 Du        
  11873 ****        35.0000  17.5000  57.7500 Du        
  11874 ****        35.0000  17.5000  58.0000 Du        
  11875 ****        35.0000  17.5000  58.2500 Du        
  11876 ****        35.0000  17.5000  58.5000 Du        
  11877 ****        35.0000  17.5000  58.7500 Du        
  11878 ****        35.0000  17.5000  59.0000 Du        
  11879 ****        35.0000  17.5000  59.2500 Du        
  11880 ****        35.0000  17.5000  59.5000 Du        
  11881 ****        35.0000  17.5000  59.7500 Du        
  11882 ****        35.0000  17.5000  60.0000 Du        
  11883 ****        35.0000  17.7500  57.7500 Du        
  11884 ****        35.0000  17.7500  58.0000 Du        
  11885 ****        35.0000  17.7500  58.2500 Du        
  11886 ****        35.0000  17.7500  58.5000 Du        
  11887 ****        35.0000  17.7500  58.7500 Du        
  11888 ****        35.0000  17.7500  59.0000 Du        
  11889 ****        35.0000  17.7500  59.2500 Du        
  11890 ****        35.0000  17.7500  59.5000 Du        
  11891 ****        35.0000  17.7500  59.7500 Du        
  11892 ****        35.0000  17.7500  60.0000 Du        
  11893 ****        35.0000  18.0000  57.7500 Du        
  11894 ****        35.0000  18.0000  58.0000 Du        
  11895 ****        35.0000  18.0000  58.2500 Du        
  11896 ****        35.0000  18.0000  58.5000 Du        
  11897 ****        35.0000  18.0000  58.7500 Du        
  11898 ****        35.0000  18.0000  59.0000 Du        
  11899 ****        35.0000  18.0000  59.2500 Du        
  11900 ****        35.0000  18.0000  59.5000 Du        
  11901 ****        35.0000  18.0000  59.7500 Du        
  11902 ****        35.0000  18.0000  60.0000 Du        
  11903 ****        35.0000  18.2500  57.7500 Du        
  11904 ****        35.0000  18.2500  58.0000 Du        
  11905 ****        35.0000  18.2500  58.2500 Du        
  11906 ****        35.0000  18.2500  58.5000 Du        
  11907 ****        35.0000  18.2500  58.7500 Du        
  11908 ****        35.0000  18.2500  59.0000 Du        
  11909 ****        35.0000  18.2500  59.2500 Du        
  11910 ****        35.0000  18.2500  59.5000 Du        
  11911 ****        35.0000  18.2500  59.7500 Du        
  11912 ****        35.0000  18.2500  60.0000 Du        
  11913 ****        35.0000  18.5000  58.0000 Du        
  11914 ****        35.0000  18.5000  58.2500 Du        
  11915 ****        35.0000  18.5000  58.5000 Du        
  11916 ****        35.0000  18.5000  58.7500 Du        
  11917 ****        35.0000  18.5000  59.0000 Du        
  11918 ****        35.0000  18.5000  59.2500 Du        
  11919 ****        35.0000  18.5000  59.5000 Du        
  11920 ****        35.0000  18.5000  59.7500 Du        
  11921 ****        35.0000  18.7500  58.0000 Du        
  11922 ****        35.0000  18.7500  58.2500 Du        
  11923 ****        35.0000  18.7500  58.5000 Du        
  11924 ****        35.0000  18.7500  58.7500 Du        
  11925 ****        35.0000  18.7500  59.0000 Du        
  11926 ****        35.0000  18.7500  59.2500 Du        
  11927 ****        35.0000  18.7500  59.5000 Du        
  11928 ****        35.0000  18.7500  59.7500 Du        
  11929 ****        35.0000  19.0000  58.0000 Du        
  11930 ****        35.0000  19.0000  58.2500 Du        
  11931 ****        35.0000  19.0000  58.5000 Du        
  11932 ****        35.0000  19.0000  58.7500 Du        
  11933 ****        35.0000  19.0000  59.0000 Du        
  11934 ****        35.0000  19.0000  59.2500 Du        
  11935 ****        35.0000  19.0000  59.5000 Du        
  11936 ****        35.0000  19.0000  59.7500 Du        
  11937 ****        35.0000  19.2500  58.2500 Du        
  11938 ****        35.0000  19.2500  58.5000 Du        
  11939 ****        35.0000  19.2500  58.7500 Du        
  11940 ****        35.0000  19.2500  59.0000 Du        
  11941 ****        35.0000  19.2500  59.2500 Du        
  11942 ****        35.0000  19.2500  59.5000 Du        
  11943 ****        35.0000  19.2500  59.7500 Du        
  11944 ****        35.0000  19.5000  59.0000 Du        
  11945 ****        35.0000  19.5000  59.2500 Du        
  11946 ****        35.0000  19.5000  59.5000 Du        
  11947 ****        35.0000  19.5000  59.7500 Du        
  11948 ****        35.0000  19.7500  59.0000 Du        
  11949 ****        35.0000  19.7500  59.2500 Du        
  11950 ****        35.0000  19.7500  59.5000 Du        
  11951 ****        35.0000  19.7500  59.7500 Du        
  11952 ****        35.0000  19.7500  60.0000 Du        
  11953 ****        35.0000  20.0000  59.0000 Du        
  11954 ****        35.0000  20.0000  59.2500 Du        
  11955 ****        35.0000  20.0000  59.5000 Du        
  11956 ****        35.0000  20.0000  59.7500 Du        
  11957 ****        35.0000  20.0000  60.0000 Du        
  11958 ****        35.0000  20.2500  59.2500 Du        
  11959 ****        35.0000  20.2500  59.5000 Du        
  11960 ****        35.0000  20.2500  59.7500 Du        
  11961 ****        35.0000  20.2500  60.0000 Du        
  11962 ****        35.0000  20.5000  59.7500 Du        
  11963 ****        35.0000  20.5000  60.0000 Du        
  11964 ****        35.0000  20.7500  59.7500 Du        
  11965 ****        35.0000  20.7500  60.0000 Du        
  11966 ****        35.0000  20.7500  60.2500 Du        
  11967 ****        35.0000  21.0000  59.7500 Du        
  11968 ****        35.0000  21.0000  60.0000 Du        
  11969 ****        35.0000  21.0000  60.2500 Du        
  11970 ****        35.0000  21.0000  60.5000 Du        
  11971 ****        35.0000  21.2500  60.0000 Du        
  11972 ****        35.0000  21.2500  60.2500 Du        
  11973 ****        35.0000  30.0000  52.7500 Du        
  11974 ****        35.0000  30.2500  52.7500 Du        
  11975 ****        35.0000  30.2500  53.0000 Du        
  11976 ****        35.0000  30.5000  53.0000 Du        
  11977 ****        35.0000  30.5000  53.2500 Du        
  11978 ****        35.0000  30.7500  53.0000 Du        
  11979 ****        35.0000  30.7500  53.2500 Du        
  11980 ****        35.0000  30.7500  53.5000 Du        
  11981 ****        35.0000  30.7500  53.7500 Du        
  11982 ****        35.0000  30.7500  54.0000 Du        
  11983 ****        35.0000  31.0000  53.0000 Du        
  11984 ****        35.0000  31.0000  53.2500 Du        
  11985 ****        35.0000  31.0000  53.5000 Du        
  11986 ****        35.0000  31.0000  53.7500 Du        
  11987 ****        35.0000  31.0000  54.0000 Du        
  11988 ****        35.0000  31.0000  54.2500 Du        
  11989 ****        35.0000  31.2500  53.0000 Du        
  11990 ****        35.0000  31.2500  53.2500 Du        
  11991 ****        35.0000  31.2500  53.5000 Du        
  11992 ****        35.0000  31.2500  53.7500 Du        
  11993 ****        35.0000  31.2500  54.0000 Du        
  11994 ****        35.0000  31.2500  54.2500 Du        
  11995 ****        35.0000  31.2500  54.5000 Du        
  11996 ****        35.0000  31.2500  54.7500 Du        
  11997 ****        35.0000  31.5000  53.0000 Du        
  11998 ****        35.0000  31.5000  53.2500 Du        
  11999 ****        35.0000  31.5000  53.5000 Du        
  12000 ****        35.0000  31.5000  53.7500 Du        
  12001 ****        35.0000  31.5000  54.0000 Du        
  12002 ****        35.0000  31.5000  54.2500 Du        
  12003 ****        35.0000  31.5000  54.5000 Du        
  12004 ****        35.0000  31.5000  54.7500 Du        
  12005 ****        35.0000  31.5000  55.0000 Du        
  12006 ****        35.0000  31.7500  53.0000 Du        
  12007 ****        35.0000  31.7500  53.2500 Du        
  12008 ****        35.0000  31.7500  53.5000 Du        
  12009 ****        35.0000  31.7500  53.7500 Du        
  12010 ****        35.0000  31.7500  54.0000 Du        
  12011 ****        35.0000  31.7500  54.2500 Du        
  12012 ****        35.0000  31.7500  54.5000 Du        
  12013 ****        35.0000  31.7500  54.7500 Du        
  12014 ****        35.0000  31.7500  55.0000 Du        
  12015 ****        35.0000  31.7500  55.2500 Du        
  12016 ****        35.0000  32.0000  53.0000 Du        
  12017 ****        35.0000  32.0000  53.2500 Du        
  12018 ****        35.0000  32.0000  53.5000 Du        
  12019 ****        35.0000  32.0000  53.7500 Du        
  12020 ****        35.0000  32.0000  54.0000 Du        
  12021 ****        35.0000  32.0000  54.2500 Du        
  12022 ****        35.0000  32.0000  54.5000 Du        
  12023 ****        35.0000  32.0000  54.7500 Du        
  12024 ****        35.0000  32.0000  55.0000 Du        
  12025 ****        35.0000  32.2500  53.0000 Du        
  12026 ****        35.0000  32.2500  53.2500 Du        
  12027 ****        35.0000  32.2500  53.5000 Du        
  12028 ****        35.0000  32.2500  53.7500 Du        
  12029 ****        35.0000  32.2500  54.0000 Du        
  12030 ****        35.0000  32.2500  54.2500 Du        
  12031 ****        35.0000  32.2500  54.5000 Du        
  12032 ****        35.0000  32.2500  54.7500 Du        
  12033 ****        35.0000  32.2500  55.0000 Du        
  12034 ****        35.0000  32.5000  53.2500 Du        
  12035 ****        35.0000  32.5000  53.5000 Du        
  12036 ****        35.0000  32.5000  53.7500 Du        
  12037 ****        35.0000  32.5000  54.0000 Du        
  12038 ****        35.0000  32.5000  54.2500 Du        
  12039 ****        35.0000  32.5000  54.5000 Du        
  12040 ****        35.0000  32.5000  54.7500 Du        
  12041 ****        35.0000  32.5000  55.0000 Du        
  12042 ****        35.0000  32.7500  53.5000 Du        
  12043 ****        35.0000  32.7500  53.7500 Du        
  12044 ****        35.0000  32.7500  54.0000 Du        
  12045 ****        35.0000  32.7500  54.2500 Du        
  12046 ****        35.0000  32.7500  54.5000 Du        
  12047 ****        35.0000  33.0000  53.7500 Du        
  12048 ****        35.0000  33.0000  54.0000 Du        
  12049 ****        35.0000  33.0000  54.2500 Du        
  12050 ****        35.0000  37.5000  58.0000 Du        
  12051 ****        35.0000  37.5000  58.2500 Du        
  12052 ****        35.0000  40.7500  44.7500 Du        
  12053 ****        35.0000  40.7500  45.0000 Du        
  12054 ****        35.0000  41.0000  44.2500 Du        
  12055 ****        35.0000  41.0000  44.5000 Du        
  12056 ****        35.0000  41.0000  44.7500 Du        
  12057 ****        35.0000  41.0000  45.0000 Du        
  12058 ****        35.0000  41.0000  45.2500 Du        
  12059 ****        35.0000  41.2500  44.2500 Du        
  12060 ****        35.0000  41.2500  44.5000 Du        
  12061 ****        35.0000  41.2500  44.7500 Du        
  12062 ****        35.0000  41.2500  45.0000 Du        
  12063 ****        35.0000  41.2500  45.2500 Du        
  12064 ****        35.0000  41.2500  45.5000 Du        
  12065 ****        35.0000  41.5000  44.2500 Du        
  12066 ****        35.0000  41.5000  44.5000 Du        
  12067 ****        35.0000  41.5000  44.7500 Du        
  12068 ****        35.0000  41.5000  45.0000 Du        
  12069 ****        35.0000  41.5000  45.2500 Du        
  12070 ****        35.0000  41.5000  45.5000 Du        
  12071 ****        35.0000  41.5000  45.7500 Du        
  12072 ****        35.0000  41.7500  44.2500 Du        
  12073 ****        35.0000  41.7500  44.5000 Du        
  12074 ****        35.0000  41.7500  44.7500 Du        
  12075 ****        35.0000  41.7500  45.0000 Du        
  12076 ****        35.0000  41.7500  45.2500 Du        
  12077 ****        35.0000  41.7500  45.5000 Du        
  12078 ****        35.0000  41.7500  45.7500 Du        
  12079 ****        35.0000  41.7500  46.0000 Du        
  12080 ****        35.0000  41.7500  46.2500 Du        
  12081 ****        35.0000  41.7500  46.5000 Du        
  12082 ****        35.0000  42.0000  44.2500 Du        
  12083 ****        35.0000  42.0000  44.5000 Du        
  12084 ****        35.0000  42.0000  44.7500 Du        
  12085 ****        35.0000  42.0000  45.0000 Du        
  12086 ****        35.0000  42.0000  45.2500 Du        
  12087 ****        35.0000  42.0000  45.5000 Du        
  12088 ****        35.0000  42.0000  45.7500 Du        
  12089 ****        35.0000  42.0000  46.0000 Du        
  12090 ****        35.0000  42.0000  46.2500 Du        
  12091 ****        35.0000  42.0000  46.5000 Du        
  12092 ****        35.0000  42.0000  46.7500 Du        
  12093 ****        35.0000  42.0000  47.0000 Du        
  12094 ****        35.0000  42.2500  44.2500 Du        
  12095 ****        35.0000  42.2500  44.5000 Du        
  12096 ****        35.0000  42.2500  44.7500 Du        
  12097 ****        35.0000  42.2500  45.0000 Du        
  12098 ****        35.0000  42.2500  45.2500 Du        
  12099 ****        35.0000  42.2500  45.5000 Du        
  12100 ****        35.0000  42.2500  45.7500 Du        
  12101 ****        35.0000  42.2500  46.0000 Du        
  12102 ****        35.0000  42.2500  46.2500 Du        
  12103 ****        35.0000  42.2500  46.5000 Du        
  12104 ****        35.0000  42.2500  46.7500 Du        
  12105 ****        35.0000  42.2500  47.0000 Du        
  12106 ****        35.0000  42.2500  47.2500 Du        
  12107 ****        35.0000  42.5000  44.5000 Du        
  12108 ****        35.0000  42.5000  44.7500 Du        
  12109 ****        35.0000  42.5000  45.0000 Du        
  12110 ****        35.0000  42.5000  45.2500 Du        
  12111 ****        35.0000  42.5000  45.5000 Du        
  12112 ****        35.0000  42.5000  45.7500 Du        
  12113 ****        35.0000  42.5000  46.0000 Du        
  12114 ****        35.0000  42.5000  46.2500 Du        
  12115 ****        35.0000  42.5000  46.5000 Du        
  12116 ****        35.0000  42.5000  46.7500 Du        
  12117 ****        35.0000  42.5000  47.0000 Du        
  12118 ****        35.0000  42.5000  47.2500 Du        
  12119 ****        35.0000  42.5000  47.5000 Du        
  12120 ****        35.0000  42.7500  44.5000 Du        
  12121 ****        35.0000  42.7500  44.7500 Du        
  12122 ****        35.0000  42.7500  45.0000 Du        
  12123 ****        35.0000  42.7500  45.2500 Du        
  12124 ****        35.0000  42.7500  45.5000 Du        
  12125 ****        35.0000  42.7500  45.7500 Du        
  12126 ****        35.0000  42.7500  46.0000 Du        
  12127 ****        35.0000  42.7500  46.2500 Du        
  12128 ****        35.0000  42.7500  46.5000 Du        
  12129 ****        35.0000  42.7500  46.7500 Du        
  12130 ****        35.0000  42.7500  47.0000 Du        
  12131 ****        35.0000  42.7500  47.2500 Du        
  12132 ****        35.0000  42.7500  47.5000 Du        
  12133 ****        35.0000  42.7500  47.7500 Du        
  12134 ****        35.0000  43.0000  44.7500 Du        
  12135 ****        35.0000  43.0000  45.0000 Du        
  12136 ****        35.0000  43.0000  45.2500 Du        
  12137 ****        35.0000  43.0000  45.5000 Du        
  12138 ****        35.0000  43.0000  45.7500 Du        
  12139 ****        35.0000  43.0000  46.0000 Du        
  12140 ****        35.0000  43.0000  46.2500 Du        
  12141 ****        35.0000  43.0000  46.5000 Du        
  12142 ****        35.0000  43.0000  46.7500 Du        
  12143 ****        35.0000  43.0000  47.0000 Du        
  12144 ****        35.0000  43.0000  47.2500 Du        
  12145 ****        35.0000  43.0000  47.5000 Du        
  12146 ****        35.0000  43.0000  47.7500 Du        
  12147 ****        35.0000  43.2500  44.7500 Du        
  12148 ****        35.0000  43.2500  45.0000 Du        
  12149 ****        35.0000  43.2500  45.2500 Du        
  12150 ****        35.0000  43.2500  45.5000 Du        
  12151 ****        35.0000  43.2500  45.7500 Du        
  12152 ****        35.0000  43.2500  46.0000 Du        
  12153 ****        35.0000  43.2500  46.2500 Du        
  12154 ****        35.0000  43.2500  46.5000 Du        
  12155 ****        35.0000  43.2500  46.7500 Du        
  12156 ****        35.0000  43.2500  47.0000 Du        
  12157 ****        35.0000  43.2500  47.2500 Du        
  12158 ****        35.0000  43.2500  47.5000 Du        
  12159 ****        35.0000  43.2500  47.7500 Du        
  12160 ****        35.0000  43.5000  45.2500 Du        
  12161 ****        35.0000  43.5000  45.5000 Du        
  12162 ****        35.0000  43.5000  45.7500 Du        
  12163 ****        35.0000  43.5000  46.0000 Du        
  12164 ****        35.0000  43.5000  46.2500 Du        
  12165 ****        35.0000  43.5000  46.5000 Du        
  12166 ****        35.0000  43.5000  46.7500 Du        
  12167 ****        35.0000  43.5000  47.0000 Du        
  12168 ****        35.0000  43.5000  47.2500 Du        
  12169 ****        35.0000  43.5000  47.5000 Du        
  12170 ****        35.0000  43.7500  45.5000 Du        
  12171 ****        35.0000  43.7500  45.7500 Du        
  12172 ****        35.0000  43.7500  46.0000 Du        
  12173 ****        35.0000  43.7500  46.2500 Du        
  12174 ****        35.0000  43.7500  46.5000 Du        
  12175 ****        35.0000  43.7500  46.7500 Du        
  12176 ****        35.0000  43.7500  47.0000 Du        
  12177 ****        35.0000  43.7500  47.2500 Du        
  12178 ****        35.0000  44.0000  45.5000 Du        
  12179 ****        35.0000  44.0000  45.7500 Du        
  12180 ****        35.0000  44.0000  46.0000 Du        
  12181 ****        35.0000  44.0000  46.2500 Du        
  12182 ****        35.0000  44.0000  46.7500 Du        
  12183 ****        35.0000  44.0000  47.0000 Du        
  12184 ****        35.0000  44.2500  45.7500 Du        
  12185 ****        35.2500  15.0000  57.2500 Du        
  12186 ****        35.2500  15.0000  57.5000 Du        
  12187 ****        35.2500  15.0000  57.7500 Du        
  12188 ****        35.2500  15.0000  58.0000 Du        
  12189 ****        35.2500  15.0000  58.2500 Du        
  12190 ****        35.2500  15.0000  58.5000 Du        
  12191 ****        35.2500  15.2500  57.5000 Du        
  12192 ****        35.2500  15.2500  57.7500 Du        
  12193 ****        35.2500  15.2500  58.0000 Du        
  12194 ****        35.2500  15.2500  58.2500 Du        
  12195 ****        35.2500  15.2500  58.5000 Du        
  12196 ****        35.2500  15.2500  58.7500 Du        
  12197 ****        35.2500  15.5000  57.5000 Du        
  12198 ****        35.2500  15.5000  57.7500 Du        
  12199 ****        35.2500  15.5000  58.0000 Du        
  12200 ****        35.2500  15.5000  58.2500 Du        
  12201 ****        35.2500  15.5000  58.5000 Du        
  12202 ****        35.2500  15.5000  58.7500 Du        
  12203 ****        35.2500  15.7500  57.7500 Du        
  12204 ****        35.2500  15.7500  58.0000 Du        
  12205 ****        35.2500  15.7500  58.2500 Du        
  12206 ****        35.2500  15.7500  58.5000 Du        
  12207 ****        35.2500  15.7500  58.7500 Du        
  12208 ****        35.2500  15.7500  59.0000 Du        
  12209 ****        35.2500  16.0000  57.7500 Du        
  12210 ****        35.2500  16.0000  58.0000 Du        
  12211 ****        35.2500  16.0000  58.2500 Du        
  12212 ****        35.2500  16.0000  58.5000 Du        
  12213 ****        35.2500  16.0000  58.7500 Du        
  12214 ****        35.2500  16.0000  59.0000 Du        
  12215 ****        35.2500  16.0000  59.2500 Du        
  12216 ****        35.2500  16.2500  57.7500 Du        
  12217 ****        35.2500  16.2500  58.0000 Du        
  12218 ****        35.2500  16.2500  58.2500 Du        
  12219 ****        35.2500  16.2500  58.5000 Du        
  12220 ****        35.2500  16.2500  58.7500 Du        
  12221 ****        35.2500  16.2500  59.0000 Du        
  12222 ****        35.2500  16.2500  59.2500 Du        
  12223 ****        35.2500  16.5000  57.7500 Du        
  12224 ****        35.2500  16.5000  58.0000 Du        
  12225 ****        35.2500  16.5000  58.2500 Du        
  12226 ****        35.2500  16.5000  58.5000 Du        
  12227 ****        35.2500  16.5000  58.7500 Du        
  12228 ****        35.2500  16.5000  59.0000 Du        
  12229 ****        35.2500  16.5000  59.2500 Du        
  12230 ****        35.2500  16.5000  59.5000 Du        
  12231 ****        35.2500  16.7500  57.7500 Du        
  12232 ****        35.2500  16.7500  58.0000 Du        
  12233 ****        35.2500  16.7500  58.2500 Du        
  12234 ****        35.2500  16.7500  58.5000 Du        
  12235 ****        35.2500  16.7500  58.7500 Du        
  12236 ****        35.2500  16.7500  59.0000 Du        
  12237 ****        35.2500  16.7500  59.2500 Du        
  12238 ****        35.2500  16.7500  59.5000 Du        
  12239 ****        35.2500  17.0000  57.7500 Du        
  12240 ****        35.2500  17.0000  58.0000 Du        
  12241 ****        35.2500  17.0000  58.2500 Du        
  12242 ****        35.2500  17.0000  58.5000 Du        
  12243 ****        35.2500  17.0000  58.7500 Du        
  12244 ****        35.2500  17.0000  59.0000 Du        
  12245 ****        35.2500  17.0000  59.2500 Du        
  12246 ****        35.2500  17.0000  59.5000 Du        
  12247 ****        35.2500  17.0000  59.7500 Du        
  12248 ****        35.2500  17.2500  57.7500 Du        
  12249 ****        35.2500  17.2500  58.0000 Du        
  12250 ****        35.2500  17.2500  58.2500 Du        
  12251 ****        35.2500  17.2500  58.5000 Du        
  12252 ****        35.2500  17.2500  58.7500 Du        
  12253 ****        35.2500  17.2500  59.0000 Du        
  12254 ****        35.2500  17.2500  59.2500 Du        
  12255 ****        35.2500  17.2500  59.5000 Du        
  12256 ****        35.2500  17.2500  59.7500 Du        
  12257 ****        35.2500  17.2500  60.0000 Du        
  12258 ****        35.2500  17.5000  57.7500 Du        
  12259 ****        35.2500  17.5000  58.0000 Du        
  12260 ****        35.2500  17.5000  58.2500 Du        
  12261 ****        35.2500  17.5000  58.5000 Du        
  12262 ****        35.2500  17.5000  58.7500 Du        
  12263 ****        35.2500  17.5000  59.0000 Du        
  12264 ****        35.2500  17.5000  59.2500 Du        
  12265 ****        35.2500  17.5000  59.5000 Du        
  12266 ****        35.2500  17.5000  59.7500 Du        
  12267 ****        35.2500  17.5000  60.0000 Du        
  12268 ****        35.2500  17.7500  57.7500 Du        
  12269 ****        35.2500  17.7500  58.0000 Du        
  12270 ****        35.2500  17.7500  58.2500 Du        
  12271 ****        35.2500  17.7500  58.5000 Du        
  12272 ****        35.2500  17.7500  58.7500 Du        
  12273 ****        35.2500  17.7500  59.0000 Du        
  12274 ****        35.2500  17.7500  59.2500 Du        
  12275 ****        35.2500  17.7500  59.5000 Du        
  12276 ****        35.2500  17.7500  59.7500 Du        
  12277 ****        35.2500  17.7500  60.0000 Du        
  12278 ****        35.2500  18.0000  57.7500 Du        
  12279 ****        35.2500  18.0000  58.0000 Du        
  12280 ****        35.2500  18.0000  58.2500 Du        
  12281 ****        35.2500  18.0000  58.5000 Du        
  12282 ****        35.2500  18.0000  58.7500 Du        
  12283 ****        35.2500  18.0000  59.0000 Du        
  12284 ****        35.2500  18.0000  59.2500 Du        
  12285 ****        35.2500  18.0000  59.5000 Du        
  12286 ****        35.2500  18.0000  59.7500 Du        
  12287 ****        35.2500  18.2500  58.0000 Du        
  12288 ****        35.2500  18.2500  58.2500 Du        
  12289 ****        35.2500  18.2500  58.5000 Du        
  12290 ****        35.2500  18.2500  58.7500 Du        
  12291 ****        35.2500  18.2500  59.0000 Du        
  12292 ****        35.2500  18.2500  59.2500 Du        
  12293 ****        35.2500  18.2500  59.5000 Du        
  12294 ****        35.2500  18.2500  59.7500 Du        
  12295 ****        35.2500  18.5000  58.0000 Du        
  12296 ****        35.2500  18.5000  58.2500 Du        
  12297 ****        35.2500  18.5000  58.5000 Du        
  12298 ****        35.2500  18.5000  58.7500 Du        
  12299 ****        35.2500  18.5000  59.0000 Du        
  12300 ****        35.2500  18.5000  59.2500 Du        
  12301 ****        35.2500  18.5000  59.5000 Du        
  12302 ****        35.2500  18.5000  59.7500 Du        
  12303 ****        35.2500  18.7500  58.2500 Du        
  12304 ****        35.2500  18.7500  58.5000 Du        
  12305 ****        35.2500  18.7500  58.7500 Du        
  12306 ****        35.2500  18.7500  59.0000 Du        
  12307 ****        35.2500  18.7500  59.2500 Du        
  12308 ****        35.2500  18.7500  59.5000 Du        
  12309 ****        35.2500  18.7500  59.7500 Du        
  12310 ****        35.2500  19.0000  58.5000 Du        
  12311 ****        35.2500  19.0000  58.7500 Du        
  12312 ****        35.2500  19.0000  59.0000 Du        
  12313 ****        35.2500  19.0000  59.2500 Du        
  12314 ****        35.2500  19.0000  59.5000 Du        
  12315 ****        35.2500  19.0000  59.7500 Du        
  12316 ****        35.2500  19.2500  58.7500 Du        
  12317 ****        35.2500  19.2500  59.0000 Du        
  12318 ****        35.2500  19.2500  59.2500 Du        
  12319 ****        35.2500  19.2500  59.5000 Du        
  12320 ****        35.2500  19.2500  59.7500 Du        
  12321 ****        35.2500  19.5000  59.2500 Du        
  12322 ****        35.2500  19.5000  59.5000 Du        
  12323 ****        35.2500  19.7500  59.5000 Du        
  12324 ****        35.2500  19.7500  59.7500 Du        
  12325 ****        35.2500  20.0000  59.5000 Du        
  12326 ****        35.2500  20.0000  59.7500 Du        
  12327 ****        35.2500  20.2500  59.7500 Du        
  12328 ****        35.2500  20.2500  60.0000 Du        
  12329 ****        35.2500  20.7500  60.0000 Du        
  12330 ****        35.2500  20.7500  60.2500 Du        
  12331 ****        35.2500  21.0000  60.0000 Du        
  12332 ****        35.2500  21.0000  60.2500 Du        
  12333 ****        35.2500  21.0000  60.5000 Du        
  12334 ****        35.2500  21.2500  60.0000 Du        
  12335 ****        35.2500  21.2500  60.2500 Du        
  12336 ****        35.2500  21.2500  60.5000 Du        
  12337 ****        35.2500  31.2500  53.7500 Du        
  12338 ****        35.2500  31.2500  54.0000 Du        
  12339 ****        35.2500  31.2500  54.2500 Du        
  12340 ****        35.2500  31.5000  53.7500 Du        
  12341 ****        35.2500  31.5000  54.0000 Du        
  12342 ****        35.2500  31.5000  54.2500 Du        
  12343 ****        35.2500  31.5000  54.5000 Du        
  12344 ****        35.2500  31.5000  54.7500 Du        
  12345 ****        35.2500  31.5000  55.0000 Du        
  12346 ****        35.2500  31.7500  53.5000 Du        
  12347 ****        35.2500  31.7500  53.7500 Du        
  12348 ****        35.2500  31.7500  54.0000 Du        
  12349 ****        35.2500  31.7500  54.2500 Du        
  12350 ****        35.2500  31.7500  54.5000 Du        
  12351 ****        35.2500  31.7500  54.7500 Du        
  12352 ****        35.2500  31.7500  55.0000 Du        
  12353 ****        35.2500  32.0000  53.2500 Du        
  12354 ****        35.2500  32.0000  53.5000 Du        
  12355 ****        35.2500  32.0000  53.7500 Du        
  12356 ****        35.2500  32.0000  54.0000 Du        
  12357 ****        35.2500  32.0000  54.2500 Du        
  12358 ****        35.2500  32.0000  54.5000 Du        
  12359 ****        35.2500  32.0000  54.7500 Du        
  12360 ****        35.2500  32.0000  55.0000 Du        
  12361 ****        35.2500  32.2500  53.2500 Du        
  12362 ****        35.2500  32.2500  53.5000 Du        
  12363 ****        35.2500  32.2500  53.7500 Du        
  12364 ****        35.2500  32.2500  54.0000 Du        
  12365 ****        35.2500  32.2500  54.2500 Du        
  12366 ****        35.2500  32.2500  54.5000 Du        
  12367 ****        35.2500  32.2500  54.7500 Du        
  12368 ****        35.2500  32.2500  55.0000 Du        
  12369 ****        35.2500  32.5000  53.5000 Du        
  12370 ****        35.2500  32.5000  53.7500 Du        
  12371 ****        35.2500  32.5000  54.0000 Du        
  12372 ****        35.2500  32.5000  54.2500 Du        
  12373 ****        35.2500  32.5000  54.5000 Du        
  12374 ****        35.2500  32.5000  54.7500 Du        
  12375 ****        35.2500  32.7500  53.5000 Du        
  12376 ****        35.2500  32.7500  53.7500 Du        
  12377 ****        35.2500  32.7500  54.0000 Du        
  12378 ****        35.2500  32.7500  54.2500 Du        
  12379 ****        35.2500  32.7500  54.5000 Du        
  12380 ****        35.2500  33.0000  53.7500 Du        
  12381 ****        35.2500  33.0000  54.0000 Du        
  12382 ****        35.2500  33.0000  54.2500 Du        
  12383 ****        35.2500  33.2500  54.0000 Du        
  12384 ****        35.2500  40.7500  44.7500 Du        
  12385 ****        35.2500  40.7500  45.0000 Du        
  12386 ****        35.2500  40.7500  45.2500 Du        
  12387 ****        35.2500  41.0000  44.2500 Du        
  12388 ****        35.2500  41.0000  44.5000 Du        
  12389 ****        35.2500  41.0000  44.7500 Du        
  12390 ****        35.2500  41.0000  45.0000 Du        
  12391 ****        35.2500  41.0000  45.2500 Du        
  12392 ****        35.2500  41.0000  45.5000 Du        
  12393 ****        35.2500  41.0000  45.7500 Du        
  12394 ****        35.2500  41.2500  44.0000 Du        
  12395 ****        35.2500  41.2500  44.2500 Du        
  12396 ****        35.2500  41.2500  44.5000 Du        
  12397 ****        35.2500  41.2500  44.7500 Du        
  12398 ****        35.2500  41.2500  45.0000 Du        
  12399 ****        35.2500  41.2500  45.2500 Du        
  12400 ****        35.2500  41.2500  45.5000 Du        
  12401 ****        35.2500  41.2500  45.7500 Du        
  12402 ****        35.2500  41.2500  46.0000 Du        
  12403 ****        35.2500  41.5000  44.2500 Du        
  12404 ****        35.2500  41.5000  44.5000 Du        
  12405 ****        35.2500  41.5000  44.7500 Du        
  12406 ****        35.2500  41.5000  45.0000 Du        
  12407 ****        35.2500  41.5000  45.2500 Du        
  12408 ****        35.2500  41.5000  45.5000 Du        
  12409 ****        35.2500  41.5000  45.7500 Du        
  12410 ****        35.2500  41.5000  46.0000 Du        
  12411 ****        35.2500  41.5000  46.2500 Du        
  12412 ****        35.2500  41.7500  44.2500 Du        
  12413 ****        35.2500  41.7500  44.5000 Du        
  12414 ****        35.2500  41.7500  44.7500 Du        
  12415 ****        35.2500  41.7500  45.0000 Du        
  12416 ****        35.2500  41.7500  45.2500 Du        
  12417 ****        35.2500  41.7500  45.5000 Du        
  12418 ****        35.2500  41.7500  45.7500 Du        
  12419 ****        35.2500  41.7500  46.0000 Du        
  12420 ****        35.2500  41.7500  46.2500 Du        
  12421 ****        35.2500  41.7500  46.5000 Du        
  12422 ****        35.2500  42.0000  44.2500 Du        
  12423 ****        35.2500  42.0000  44.5000 Du        
  12424 ****        35.2500  42.0000  44.7500 Du        
  12425 ****        35.2500  42.0000  45.0000 Du        
  12426 ****        35.2500  42.0000  45.2500 Du        
  12427 ****        35.2500  42.0000  45.5000 Du        
  12428 ****        35.2500  42.0000  45.7500 Du        
  12429 ****        35.2500  42.0000  46.0000 Du        
  12430 ****        35.2500  42.0000  46.2500 Du        
  12431 ****        35.2500  42.0000  46.5000 Du        
  12432 ****        35.2500  42.0000  46.7500 Du        
  12433 ****        35.2500  42.2500  44.2500 Du        
  12434 ****        35.2500  42.2500  44.5000 Du        
  12435 ****        35.2500  42.2500  44.7500 Du        
  12436 ****        35.2500  42.2500  45.0000 Du        
  12437 ****        35.2500  42.2500  45.2500 Du        
  12438 ****        35.2500  42.2500  45.5000 Du        
  12439 ****        35.2500  42.2500  45.7500 Du        
  12440 ****        35.2500  42.2500  46.0000 Du        
  12441 ****        35.2500  42.2500  46.2500 Du        
  12442 ****        35.2500  42.2500  46.5000 Du        
  12443 ****        35.2500  42.2500  46.7500 Du        
  12444 ****        35.2500  42.2500  47.0000 Du        
  12445 ****        35.2500  42.5000  44.5000 Du        
  12446 ****        35.2500  42.5000  44.7500 Du        
  12447 ****        35.2500  42.5000  45.0000 Du        
  12448 ****        35.2500  42.5000  45.2500 Du        
  12449 ****        35.2500  42.5000  45.5000 Du        
  12450 ****        35.2500  42.5000  45.7500 Du        
  12451 ****        35.2500  42.5000  46.0000 Du        
  12452 ****        35.2500  42.5000  46.2500 Du        
  12453 ****        35.2500  42.5000  46.5000 Du        
  12454 ****        35.2500  42.5000  46.7500 Du        
  12455 ****        35.2500  42.5000  47.0000 Du        
  12456 ****        35.2500  42.5000  47.2500 Du        
  12457 ****        35.2500  42.7500  44.7500 Du        
  12458 ****        35.2500  42.7500  45.0000 Du        
  12459 ****        35.2500  42.7500  45.2500 Du        
  12460 ****        35.2500  42.7500  45.5000 Du        
  12461 ****        35.2500  42.7500  45.7500 Du        
  12462 ****        35.2500  42.7500  46.0000 Du        
  12463 ****        35.2500  42.7500  46.2500 Du        
  12464 ****        35.2500  42.7500  46.5000 Du        
  12465 ****        35.2500  42.7500  46.7500 Du        
  12466 ****        35.2500  42.7500  47.0000 Du        
  12467 ****        35.2500  42.7500  47.2500 Du        
  12468 ****        35.2500  43.0000  44.7500 Du        
  12469 ****        35.2500  43.0000  45.0000 Du        
  12470 ****        35.2500  43.0000  45.2500 Du        
  12471 ****        35.2500  43.0000  45.5000 Du        
  12472 ****        35.2500  43.0000  45.7500 Du        
  12473 ****        35.2500  43.0000  46.0000 Du        
  12474 ****        35.2500  43.0000  46.2500 Du        
  12475 ****        35.2500  43.0000  46.5000 Du        
  12476 ****        35.2500  43.0000  46.7500 Du        
  12477 ****        35.2500  43.0000  47.0000 Du        
  12478 ****        35.2500  43.0000  47.2500 Du        
  12479 ****        35.2500  43.0000  47.5000 Du        
  12480 ****        35.2500  43.2500  45.0000 Du        
  12481 ****        35.2500  43.2500  45.2500 Du        
  12482 ****        35.2500  43.2500  45.5000 Du        
  12483 ****        35.2500  43.2500  45.7500 Du        
  12484 ****        35.2500  43.2500  46.0000 Du        
  12485 ****        35.2500  43.2500  46.2500 Du        
  12486 ****        35.2500  43.2500  46.5000 Du        
  12487 ****        35.2500  43.2500  46.7500 Du        
  12488 ****        35.2500  43.2500  47.0000 Du        
  12489 ****        35.2500  43.2500  47.2500 Du        
  12490 ****        35.2500  43.2500  47.5000 Du        
  12491 ****        35.2500  43.5000  45.2500 Du        
  12492 ****        35.2500  43.5000  45.5000 Du        
  12493 ****        35.2500  43.5000  45.7500 Du        
  12494 ****        35.2500  43.5000  46.0000 Du        
  12495 ****        35.2500  43.5000  46.2500 Du        
  12496 ****        35.2500  43.5000  46.5000 Du        
  12497 ****        35.2500  43.5000  46.7500 Du        
  12498 ****        35.2500  43.5000  47.0000 Du        
  12499 ****        35.2500  43.5000  47.2500 Du        
  12500 ****        35.2500  43.5000  47.5000 Du        
  12501 ****        35.2500  43.7500  45.7500 Du        
  12502 ****        35.2500  43.7500  46.0000 Du        
  12503 ****        35.2500  43.7500  46.2500 Du        
  12504 ****        35.2500  43.7500  46.7500 Du        
  12505 ****        35.2500  43.7500  47.0000 Du        
  12506 ****        35.2500  43.7500  47.2500 Du        
  12507 ****        35.2500  44.0000  45.7500 Du        
  12508 ****        35.2500  44.0000  46.2500 Du        
  12509 ****        35.2500  44.0000  46.7500 Du        
  12510 ****        35.2500  44.0000  47.0000 Du        
  12511 ****        35.5000  15.0000  57.7500 Du        
  12512 ****        35.5000  15.0000  58.0000 Du        
  12513 ****        35.5000  15.0000  58.2500 Du        
  12514 ****        35.5000  15.0000  58.5000 Du        
  12515 ****        35.5000  15.2500  57.7500 Du        
  12516 ****        35.5000  15.2500  58.0000 Du        
  12517 ****        35.5000  15.2500  58.2500 Du        
  12518 ****        35.5000  15.2500  58.5000 Du        
  12519 ****        35.5000  15.2500  58.7500 Du        
  12520 ****        35.5000  15.5000  57.7500 Du        
  12521 ****        35.5000  15.5000  58.0000 Du        
  12522 ****        35.5000  15.5000  58.2500 Du        
  12523 ****        35.5000  15.5000  58.5000 Du        
  12524 ****        35.5000  15.5000  58.7500 Du        
  12525 ****        35.5000  15.5000  59.0000 Du        
  12526 ****        35.5000  15.7500  57.7500 Du        
  12527 ****        35.5000  15.7500  58.0000 Du        
  12528 ****        35.5000  15.7500  58.2500 Du        
  12529 ****        35.5000  15.7500  58.5000 Du        
  12530 ****        35.5000  15.7500  58.7500 Du        
  12531 ****        35.5000  15.7500  59.0000 Du        
  12532 ****        35.5000  16.0000  57.7500 Du        
  12533 ****        35.5000  16.0000  58.0000 Du        
  12534 ****        35.5000  16.0000  58.2500 Du        
  12535 ****        35.5000  16.0000  58.5000 Du        
  12536 ****        35.5000  16.0000  58.7500 Du        
  12537 ****        35.5000  16.0000  59.0000 Du        
  12538 ****        35.5000  16.0000  59.2500 Du        
  12539 ****        35.5000  16.2500  57.7500 Du        
  12540 ****        35.5000  16.2500  58.0000 Du        
  12541 ****        35.5000  16.2500  58.2500 Du        
  12542 ****        35.5000  16.2500  58.5000 Du        
  12543 ****        35.5000  16.2500  58.7500 Du        
  12544 ****        35.5000  16.2500  59.0000 Du        
  12545 ****        35.5000  16.2500  59.2500 Du        
  12546 ****        35.5000  16.5000  57.7500 Du        
  12547 ****        35.5000  16.5000  58.0000 Du        
  12548 ****        35.5000  16.5000  58.2500 Du        
  12549 ****        35.5000  16.5000  58.5000 Du        
  12550 ****        35.5000  16.5000  58.7500 Du        
  12551 ****        35.5000  16.5000  59.0000 Du        
  12552 ****        35.5000  16.5000  59.2500 Du        
  12553 ****        35.5000  16.5000  59.5000 Du        
  12554 ****        35.5000  16.7500  57.7500 Du        
  12555 ****        35.5000  16.7500  58.0000 Du        
  12556 ****        35.5000  16.7500  58.2500 Du        
  12557 ****        35.5000  16.7500  58.5000 Du        
  12558 ****        35.5000  16.7500  58.7500 Du        
  12559 ****        35.5000  16.7500  59.0000 Du        
  12560 ****        35.5000  16.7500  59.2500 Du        
  12561 ****        35.5000  16.7500  59.5000 Du        
  12562 ****        35.5000  16.7500  59.7500 Du        
  12563 ****        35.5000  17.0000  57.7500 Du        
  12564 ****        35.5000  17.0000  58.0000 Du        
  12565 ****        35.5000  17.0000  58.2500 Du        
  12566 ****        35.5000  17.0000  58.5000 Du        
  12567 ****        35.5000  17.0000  58.7500 Du        
  12568 ****        35.5000  17.0000  59.0000 Du        
  12569 ****        35.5000  17.0000  59.2500 Du        
  12570 ****        35.5000  17.0000  59.5000 Du        
  12571 ****        35.5000  17.0000  59.7500 Du        
  12572 ****        35.5000  17.2500  57.7500 Du        
  12573 ****        35.5000  17.2500  58.0000 Du        
  12574 ****        35.5000  17.2500  58.2500 Du        
  12575 ****        35.5000  17.2500  58.5000 Du        
  12576 ****        35.5000  17.2500  58.7500 Du        
  12577 ****        35.5000  17.2500  59.0000 Du        
  12578 ****        35.5000  17.2500  59.2500 Du        
  12579 ****        35.5000  17.2500  59.5000 Du        
  12580 ****        35.5000  17.2500  59.7500 Du        
  12581 ****        35.5000  17.2500  60.0000 Du        
  12582 ****        35.5000  17.5000  57.7500 Du        
  12583 ****        35.5000  17.5000  58.0000 Du        
  12584 ****        35.5000  17.5000  58.2500 Du        
  12585 ****        35.5000  17.5000  58.5000 Du        
  12586 ****        35.5000  17.5000  58.7500 Du        
  12587 ****        35.5000  17.5000  59.0000 Du        
  12588 ****        35.5000  17.5000  59.2500 Du        
  12589 ****        35.5000  17.5000  59.5000 Du        
  12590 ****        35.5000  17.5000  59.7500 Du        
  12591 ****        35.5000  17.5000  60.0000 Du        
  12592 ****        35.5000  17.7500  57.7500 Du        
  12593 ****        35.5000  17.7500  58.0000 Du        
  12594 ****        35.5000  17.7500  58.2500 Du        
  12595 ****        35.5000  17.7500  58.5000 Du        
  12596 ****        35.5000  17.7500  58.7500 Du        
  12597 ****        35.5000  17.7500  59.0000 Du        
  12598 ****        35.5000  17.7500  59.2500 Du        
  12599 ****        35.5000  17.7500  59.5000 Du        
  12600 ****        35.5000  17.7500  59.7500 Du        
  12601 ****        35.5000  18.0000  58.0000 Du        
  12602 ****        35.5000  18.0000  58.2500 Du        
  12603 ****        35.5000  18.0000  58.5000 Du        
  12604 ****        35.5000  18.0000  58.7500 Du        
  12605 ****        35.5000  18.0000  59.0000 Du        
  12606 ****        35.5000  18.0000  59.2500 Du        
  12607 ****        35.5000  18.0000  59.5000 Du        
  12608 ****        35.5000  18.0000  59.7500 Du        
  12609 ****        35.5000  18.2500  58.0000 Du        
  12610 ****        35.5000  18.2500  58.2500 Du        
  12611 ****        35.5000  18.2500  58.5000 Du        
  12612 ****        35.5000  18.2500  58.7500 Du        
  12613 ****        35.5000  18.2500  59.0000 Du        
  12614 ****        35.5000  18.2500  59.2500 Du        
  12615 ****        35.5000  18.2500  59.5000 Du        
  12616 ****        35.5000  18.2500  59.7500 Du        
  12617 ****        35.5000  18.5000  58.2500 Du        
  12618 ****        35.5000  18.5000  58.5000 Du        
  12619 ****        35.5000  18.5000  58.7500 Du        
  12620 ****        35.5000  18.5000  59.0000 Du        
  12621 ****        35.5000  18.5000  59.2500 Du        
  12622 ****        35.5000  18.5000  59.5000 Du        
  12623 ****        35.5000  18.7500  58.5000 Du        
  12624 ****        35.5000  18.7500  58.7500 Du        
  12625 ****        35.5000  18.7500  59.0000 Du        
  12626 ****        35.5000  18.7500  59.2500 Du        
  12627 ****        35.5000  18.7500  59.5000 Du        
  12628 ****        35.5000  19.0000  58.7500 Du        
  12629 ****        35.5000  19.0000  59.0000 Du        
  12630 ****        35.5000  19.0000  59.2500 Du        
  12631 ****        35.5000  19.0000  59.5000 Du        
  12632 ****        35.5000  19.2500  59.0000 Du        
  12633 ****        35.5000  19.2500  59.2500 Du        
  12634 ****        35.5000  19.2500  59.5000 Du        
  12635 ****        35.5000  19.5000  59.2500 Du        
  12636 ****        35.5000  19.5000  59.5000 Du        
  12637 ****        35.5000  21.2500  60.2500 Du        
  12638 ****        35.5000  21.5000  60.5000 Du        
  12639 ****        35.5000  21.7500  60.5000 Du        
  12640 ****        35.5000  32.5000  54.0000 Du        
  12641 ****        35.5000  32.5000  54.2500 Du        
  12642 ****        35.5000  32.7500  53.7500 Du        
  12643 ****        35.5000  32.7500  54.0000 Du        
  12644 ****        35.5000  32.7500  54.2500 Du        
  12645 ****        35.5000  33.0000  53.7500 Du        
  12646 ****        35.5000  33.0000  54.0000 Du        
  12647 ****        35.5000  33.0000  54.2500 Du        
  12648 ****        35.5000  33.2500  53.7500 Du        
  12649 ****        35.5000  33.2500  54.0000 Du        
  12650 ****        35.5000  40.7500  44.7500 Du        
  12651 ****        35.5000  40.7500  45.0000 Du        
  12652 ****        35.5000  40.7500  45.2500 Du        
  12653 ****        35.5000  40.7500  45.5000 Du        
  12654 ****        35.5000  41.0000  44.5000 Du        
  12655 ****        35.5000  41.0000  44.7500 Du        
  12656 ****        35.5000  41.0000  45.0000 Du        
  12657 ****        35.5000  41.0000  45.2500 Du        
  12658 ****        35.5000  41.0000  45.5000 Du        
  12659 ****        35.5000  41.0000  45.7500 Du        
  12660 ****        35.5000  41.2500  44.2500 Du        
  12661 ****        35.5000  41.2500  44.5000 Du        
  12662 ****        35.5000  41.2500  44.7500 Du        
  12663 ****        35.5000  41.2500  45.0000 Du        
  12664 ****        35.5000  41.2500  45.2500 Du        
  12665 ****        35.5000  41.2500  45.5000 Du        
  12666 ****        35.5000  41.2500  45.7500 Du        
  12667 ****        35.5000  41.2500  46.0000 Du        
  12668 ****        35.5000  41.5000  44.2500 Du        
  12669 ****        35.5000  41.5000  44.5000 Du        
  12670 ****        35.5000  41.5000  44.7500 Du        
  12671 ****        35.5000  41.5000  45.0000 Du        
  12672 ****        35.5000  41.5000  45.2500 Du        
  12673 ****        35.5000  41.5000  45.5000 Du        
  12674 ****        35.5000  41.5000  45.7500 Du        
  12675 ****        35.5000  41.5000  46.0000 Du        
  12676 ****        35.5000  41.7500  44.2500 Du        
  12677 ****        35.5000  41.7500  44.5000 Du        
  12678 ****        35.5000  41.7500  44.7500 Du        
  12679 ****        35.5000  41.7500  45.0000 Du        
  12680 ****        35.5000  41.7500  45.2500 Du        
  12681 ****        35.5000  41.7500  45.5000 Du        
  12682 ****        35.5000  41.7500  45.7500 Du        
  12683 ****        35.5000  41.7500  46.0000 Du        
  12684 ****        35.5000  41.7500  46.2500 Du        
  12685 ****        35.5000  42.0000  44.2500 Du        
  12686 ****        35.5000  42.0000  44.5000 Du        
  12687 ****        35.5000  42.0000  44.7500 Du        
  12688 ****        35.5000  42.0000  45.0000 Du        
  12689 ****        35.5000  42.0000  45.2500 Du        
  12690 ****        35.5000  42.0000  45.5000 Du        
  12691 ****        35.5000  42.0000  45.7500 Du        
  12692 ****        35.5000  42.0000  46.0000 Du        
  12693 ****        35.5000  42.0000  46.2500 Du        
  12694 ****        35.5000  42.2500  44.2500 Du        
  12695 ****        35.5000  42.2500  44.5000 Du        
  12696 ****        35.5000  42.2500  44.7500 Du        
  12697 ****        35.5000  42.2500  45.0000 Du        
  12698 ****        35.5000  42.2500  45.2500 Du        
  12699 ****        35.5000  42.2500  45.5000 Du        
  12700 ****        35.5000  42.2500  45.7500 Du        
  12701 ****        35.5000  42.2500  46.0000 Du        
  12702 ****        35.5000  42.2500  46.2500 Du        
  12703 ****        35.5000  42.2500  46.5000 Du        
  12704 ****        35.5000  42.5000  44.5000 Du        
  12705 ****        35.5000  42.5000  44.7500 Du        
  12706 ****        35.5000  42.5000  45.0000 Du        
  12707 ****        35.5000  42.5000  45.2500 Du        
  12708 ****        35.5000  42.5000  45.5000 Du        
  12709 ****        35.5000  42.5000  45.7500 Du        
  12710 ****        35.5000  42.5000  46.0000 Du        
  12711 ****        35.5000  42.5000  46.2500 Du        
  12712 ****        35.5000  42.5000  46.5000 Du        
  12713 ****        35.5000  42.5000  46.7500 Du        
  12714 ****        35.5000  42.7500  44.7500 Du        
  12715 ****        35.5000  42.7500  45.0000 Du        
  12716 ****        35.5000  42.7500  45.2500 Du        
  12717 ****        35.5000  42.7500  45.5000 Du        
  12718 ****        35.5000  42.7500  45.7500 Du        
  12719 ****        35.5000  42.7500  46.0000 Du        
  12720 ****        35.5000  42.7500  46.2500 Du        
  12721 ****        35.5000  42.7500  46.5000 Du        
  12722 ****        35.5000  42.7500  46.7500 Du        
  12723 ****        35.5000  42.7500  47.0000 Du        
  12724 ****        35.5000  43.0000  45.0000 Du        
  12725 ****        35.5000  43.0000  45.2500 Du        
  12726 ****        35.5000  43.0000  45.5000 Du        
  12727 ****        35.5000  43.0000  45.7500 Du        
  12728 ****        35.5000  43.0000  46.0000 Du        
  12729 ****        35.5000  43.0000  46.2500 Du        
  12730 ****        35.5000  43.0000  46.5000 Du        
  12731 ****        35.5000  43.0000  46.7500 Du        
  12732 ****        35.5000  43.0000  47.0000 Du        
  12733 ****        35.5000  43.0000  47.2500 Du        
  12734 ****        35.5000  43.2500  45.0000 Du        
  12735 ****        35.5000  43.2500  45.2500 Du        
  12736 ****        35.5000  43.2500  45.5000 Du        
  12737 ****        35.5000  43.2500  45.7500 Du        
  12738 ****        35.5000  43.2500  46.0000 Du        
  12739 ****        35.5000  43.2500  46.2500 Du        
  12740 ****        35.5000  43.2500  46.5000 Du        
  12741 ****        35.5000  43.2500  46.7500 Du        
  12742 ****        35.5000  43.2500  47.0000 Du        
  12743 ****        35.5000  43.2500  47.2500 Du        
  12744 ****        35.5000  43.5000  45.7500 Du        
  12745 ****        35.5000  43.5000  46.0000 Du        
  12746 ****        35.5000  43.5000  46.2500 Du        
  12747 ****        35.5000  43.7500  46.0000 Du        
  12748 ****        35.5000  43.7500  46.2500 Du        
  12749 ****        35.7500  15.0000  58.0000 Du        
  12750 ****        35.7500  15.0000  58.2500 Du        
  12751 ****        35.7500  15.2500  58.2500 Du        
  12752 ****        35.7500  15.2500  58.5000 Du        
  12753 ****        35.7500  15.2500  58.7500 Du        
  12754 ****        35.7500  15.5000  58.2500 Du        
  12755 ****        35.7500  15.5000  58.5000 Du        
  12756 ****        35.7500  15.5000  58.7500 Du        
  12757 ****        35.7500  15.7500  58.2500 Du        
  12758 ****        35.7500  15.7500  58.5000 Du        
  12759 ****        35.7500  15.7500  58.7500 Du        
  12760 ****        35.7500  15.7500  59.0000 Du        
  12761 ****        35.7500  16.0000  58.0000 Du        
  12762 ****        35.7500  16.0000  58.2500 Du        
  12763 ****        35.7500  16.0000  58.5000 Du        
  12764 ****        35.7500  16.0000  58.7500 Du        
  12765 ****        35.7500  16.0000  59.0000 Du        
  12766 ****        35.7500  16.0000  59.2500 Du        
  12767 ****        35.7500  16.2500  58.0000 Du        
  12768 ****        35.7500  16.2500  58.2500 Du        
  12769 ****        35.7500  16.2500  58.5000 Du        
  12770 ****        35.7500  16.2500  58.7500 Du        
  12771 ****        35.7500  16.2500  59.0000 Du        
  12772 ****        35.7500  16.2500  59.2500 Du        
  12773 ****        35.7500  16.5000  58.0000 Du        
  12774 ****        35.7500  16.5000  58.2500 Du        
  12775 ****        35.7500  16.5000  58.5000 Du        
  12776 ****        35.7500  16.5000  58.7500 Du        
  12777 ****        35.7500  16.5000  59.0000 Du        
  12778 ****        35.7500  16.5000  59.2500 Du        
  12779 ****        35.7500  16.5000  59.5000 Du        
  12780 ****        35.7500  16.7500  58.0000 Du        
  12781 ****        35.7500  16.7500  58.2500 Du        
  12782 ****        35.7500  16.7500  58.5000 Du        
  12783 ****        35.7500  16.7500  58.7500 Du        
  12784 ****        35.7500  16.7500  59.0000 Du        
  12785 ****        35.7500  16.7500  59.2500 Du        
  12786 ****        35.7500  16.7500  59.5000 Du        
  12787 ****        35.7500  16.7500  59.7500 Du        
  12788 ****        35.7500  17.0000  57.7500 Du        
  12789 ****        35.7500  17.0000  58.0000 Du        
  12790 ****        35.7500  17.0000  58.2500 Du        
  12791 ****        35.7500  17.0000  58.5000 Du        
  12792 ****        35.7500  17.0000  58.7500 Du        
  12793 ****        35.7500  17.0000  59.0000 Du        
  12794 ****        35.7500  17.0000  59.2500 Du        
  12795 ****        35.7500  17.0000  59.5000 Du        
  12796 ****        35.7500  17.0000  59.7500 Du        
  12797 ****        35.7500  17.2500  57.7500 Du        
  12798 ****        35.7500  17.2500  58.0000 Du        
  12799 ****        35.7500  17.2500  58.2500 Du        
  12800 ****        35.7500  17.2500  58.5000 Du        
  12801 ****        35.7500  17.2500  58.7500 Du        
  12802 ****        35.7500  17.2500  59.0000 Du        
  12803 ****        35.7500  17.2500  59.2500 Du        
  12804 ****        35.7500  17.2500  59.5000 Du        
  12805 ****        35.7500  17.2500  59.7500 Du        
  12806 ****        35.7500  17.5000  57.7500 Du        
  12807 ****        35.7500  17.5000  58.0000 Du        
  12808 ****        35.7500  17.5000  58.2500 Du        
  12809 ****        35.7500  17.5000  58.5000 Du        
  12810 ****        35.7500  17.5000  58.7500 Du        
  12811 ****        35.7500  17.5000  59.0000 Du        
  12812 ****        35.7500  17.5000  59.2500 Du        
  12813 ****        35.7500  17.5000  59.5000 Du        
  12814 ****        35.7500  17.5000  59.7500 Du        
  12815 ****        35.7500  17.7500  57.7500 Du        
  12816 ****        35.7500  17.7500  58.0000 Du        
  12817 ****        35.7500  17.7500  58.2500 Du        
  12818 ****        35.7500  17.7500  58.5000 Du        
  12819 ****        35.7500  17.7500  58.7500 Du        
  12820 ****        35.7500  17.7500  59.0000 Du        
  12821 ****        35.7500  17.7500  59.2500 Du        
  12822 ****        35.7500  17.7500  59.5000 Du        
  12823 ****        35.7500  17.7500  59.7500 Du        
  12824 ****        35.7500  18.0000  58.0000 Du        
  12825 ****        35.7500  18.0000  58.2500 Du        
  12826 ****        35.7500  18.0000  58.5000 Du        
  12827 ****        35.7500  18.0000  58.7500 Du        
  12828 ****        35.7500  18.0000  59.0000 Du        
  12829 ****        35.7500  18.0000  59.2500 Du        
  12830 ****        35.7500  18.0000  59.5000 Du        
  12831 ****        35.7500  18.0000  59.7500 Du        
  12832 ****        35.7500  18.2500  58.2500 Du        
  12833 ****        35.7500  18.2500  58.5000 Du        
  12834 ****        35.7500  18.2500  58.7500 Du        
  12835 ****        35.7500  18.2500  59.0000 Du        
  12836 ****        35.7500  18.2500  59.2500 Du        
  12837 ****        35.7500  18.2500  59.5000 Du        
  12838 ****        35.7500  18.5000  58.5000 Du        
  12839 ****        35.7500  18.5000  58.7500 Du        
  12840 ****        35.7500  18.5000  59.0000 Du        
  12841 ****        35.7500  18.5000  59.2500 Du        
  12842 ****        35.7500  18.5000  59.5000 Du        
  12843 ****        35.7500  18.7500  58.7500 Du        
  12844 ****        35.7500  18.7500  59.0000 Du        
  12845 ****        35.7500  18.7500  59.2500 Du        
  12846 ****        35.7500  18.7500  59.5000 Du        
  12847 ****        35.7500  19.0000  59.0000 Du        
  12848 ****        35.7500  19.0000  59.2500 Du        
  12849 ****        35.7500  19.0000  59.5000 Du        
  12850 ****        35.7500  21.5000  60.5000 Du        
  12851 ****        35.7500  21.5000  60.7500 Du        
  12852 ****        35.7500  21.7500  60.5000 Du        
  12853 ****        35.7500  21.7500  60.7500 Du        
  12854 ****        35.7500  21.7500  61.0000 Du        
  12855 ****        35.7500  22.0000  60.5000 Du        
  12856 ****        35.7500  22.0000  60.7500 Du        
  12857 ****        35.7500  22.0000  61.0000 Du        
  12858 ****        35.7500  22.2500  60.7500 Du        
  12859 ****        35.7500  22.2500  61.0000 Du        
  12860 ****        35.7500  22.2500  61.2500 Du        
  12861 ****        35.7500  33.2500  54.0000 Du        
  12862 ****        35.7500  40.7500  45.0000 Du        
  12863 ****        35.7500  40.7500  45.2500 Du        
  12864 ****        35.7500  40.7500  45.5000 Du        
  12865 ****        35.7500  41.0000  44.5000 Du        
  12866 ****        35.7500  41.0000  44.7500 Du        
  12867 ****        35.7500  41.0000  45.0000 Du        
  12868 ****        35.7500  41.0000  45.2500 Du        
  12869 ****        35.7500  41.0000  45.5000 Du        
  12870 ****        35.7500  41.0000  45.7500 Du        
  12871 ****        35.7500  41.2500  44.2500 Du        
  12872 ****        35.7500  41.2500  44.5000 Du        
  12873 ****        35.7500  41.2500  44.7500 Du        
  12874 ****        35.7500  41.2500  45.0000 Du        
  12875 ****        35.7500  41.2500  45.2500 Du        
  12876 ****        35.7500  41.2500  45.5000 Du        
  12877 ****        35.7500  41.2500  45.7500 Du        
  12878 ****        35.7500  41.5000  44.2500 Du        
  12879 ****        35.7500  41.5000  44.5000 Du        
  12880 ****        35.7500  41.5000  44.7500 Du        
  12881 ****        35.7500  41.5000  45.0000 Du        
  12882 ****        35.7500  41.5000  45.2500 Du        
  12883 ****        35.7500  41.5000  45.5000 Du        
  12884 ****        35.7500  41.5000  45.7500 Du        
  12885 ****        35.7500  41.5000  46.0000 Du        
  12886 ****        35.7500  41.7500  44.2500 Du        
  12887 ****        35.7500  41.7500  44.5000 Du        
  12888 ****        35.7500  41.7500  44.7500 Du        
  12889 ****        35.7500  41.7500  45.0000 Du        
  12890 ****        35.7500  41.7500  45.2500 Du        
  12891 ****        35.7500  41.7500  45.5000 Du        
  12892 ****        35.7500  41.7500  45.7500 Du        
  12893 ****        35.7500  41.7500  46.0000 Du        
  12894 ****        35.7500  42.0000  44.2500 Du        
  12895 ****        35.7500  42.0000  44.5000 Du        
  12896 ****        35.7500  42.0000  44.7500 Du        
  12897 ****        35.7500  42.0000  45.0000 Du        
  12898 ****        35.7500  42.0000  45.2500 Du        
  12899 ****        35.7500  42.0000  45.5000 Du        
  12900 ****        35.7500  42.0000  45.7500 Du        
  12901 ****        35.7500  42.0000  46.0000 Du        
  12902 ****        35.7500  42.0000  46.2500 Du        
  12903 ****        35.7500  42.2500  44.5000 Du        
  12904 ****        35.7500  42.2500  44.7500 Du        
  12905 ****        35.7500  42.2500  45.0000 Du        
  12906 ****        35.7500  42.2500  45.2500 Du        
  12907 ****        35.7500  42.2500  45.5000 Du        
  12908 ****        35.7500  42.2500  45.7500 Du        
  12909 ****        35.7500  42.2500  46.0000 Du        
  12910 ****        35.7500  42.2500  46.2500 Du        
  12911 ****        35.7500  42.5000  44.7500 Du        
  12912 ****        35.7500  42.5000  45.0000 Du        
  12913 ****        35.7500  42.5000  45.2500 Du        
  12914 ****        35.7500  42.5000  45.5000 Du        
  12915 ****        35.7500  42.5000  45.7500 Du        
  12916 ****        35.7500  42.5000  46.0000 Du        
  12917 ****        35.7500  42.5000  46.2500 Du        
  12918 ****        35.7500  42.5000  46.5000 Du        
  12919 ****        35.7500  42.7500  44.7500 Du        
  12920 ****        35.7500  42.7500  45.0000 Du        
  12921 ****        35.7500  42.7500  45.2500 Du        
  12922 ****        35.7500  42.7500  45.5000 Du        
  12923 ****        35.7500  42.7500  45.7500 Du        
  12924 ****        35.7500  42.7500  46.0000 Du        
  12925 ****        35.7500  42.7500  46.2500 Du        
  12926 ****        35.7500  42.7500  46.5000 Du        
  12927 ****        35.7500  42.7500  46.7500 Du        
  12928 ****        35.7500  43.0000  45.0000 Du        
  12929 ****        35.7500  43.0000  45.2500 Du        
  12930 ****        35.7500  43.0000  45.5000 Du        
  12931 ****        35.7500  43.0000  45.7500 Du        
  12932 ****        35.7500  43.0000  46.0000 Du        
  12933 ****        35.7500  43.0000  46.2500 Du        
  12934 ****        35.7500  43.0000  46.5000 Du        
  12935 ****        35.7500  43.0000  46.7500 Du        
  12936 ****        35.7500  43.0000  47.0000 Du        
  12937 ****        35.7500  43.2500  45.2500 Du        
  12938 ****        35.7500  43.2500  45.5000 Du        
  12939 ****        35.7500  43.2500  45.7500 Du        
  12940 ****        35.7500  43.2500  46.0000 Du        
  12941 ****        35.7500  43.2500  46.2500 Du        
  12942 ****        35.7500  43.2500  46.5000 Du        
  12943 ****        35.7500  43.2500  46.7500 Du        
  12944 ****        35.7500  43.2500  47.0000 Du        
  12945 ****        35.7500  43.5000  45.7500 Du        
  12946 ****        35.7500  43.5000  46.0000 Du        
  12947 ****        35.7500  43.5000  46.2500 Du        
  12948 ****        35.7500  43.7500  46.0000 Du        
  12949 ****        35.7500  43.7500  46.2500 Du        
  12950 ****        35.7500  44.0000  46.0000 Du        
  12951 ****        36.0000  15.7500  58.5000 Du        
  12952 ****        36.0000  15.7500  58.7500 Du        
  12953 ****        36.0000  16.0000  58.5000 Du        
  12954 ****        36.0000  16.0000  58.7500 Du        
  12955 ****        36.0000  16.0000  59.0000 Du        
  12956 ****        36.0000  16.2500  58.2500 Du        
  12957 ****        36.0000  16.2500  58.5000 Du        
  12958 ****        36.0000  16.2500  58.7500 Du        
  12959 ****        36.0000  16.2500  59.0000 Du        
  12960 ****        36.0000  16.2500  59.2500 Du        
  12961 ****        36.0000  16.5000  58.2500 Du        
  12962 ****        36.0000  16.5000  58.5000 Du        
  12963 ****        36.0000  16.5000  58.7500 Du        
  12964 ****        36.0000  16.5000  59.0000 Du        
  12965 ****        36.0000  16.5000  59.2500 Du        
  12966 ****        36.0000  16.7500  58.0000 Du        
  12967 ****        36.0000  16.7500  58.2500 Du        
  12968 ****        36.0000  16.7500  58.5000 Du        
  12969 ****        36.0000  16.7500  58.7500 Du        
  12970 ****        36.0000  16.7500  59.0000 Du        
  12971 ****        36.0000  16.7500  59.2500 Du        
  12972 ****        36.0000  16.7500  59.5000 Du        
  12973 ****        36.0000  17.0000  58.0000 Du        
  12974 ****        36.0000  17.0000  58.2500 Du        
  12975 ****        36.0000  17.0000  58.5000 Du        
  12976 ****        36.0000  17.0000  58.7500 Du        
  12977 ****        36.0000  17.0000  59.0000 Du        
  12978 ****        36.0000  17.0000  59.2500 Du        
  12979 ****        36.0000  17.0000  59.5000 Du        
  12980 ****        36.0000  17.0000  59.7500 Du        
  12981 ****        36.0000  17.2500  58.0000 Du        
  12982 ****        36.0000  17.2500  58.2500 Du        
  12983 ****        36.0000  17.2500  58.5000 Du        
  12984 ****        36.0000  17.2500  58.7500 Du        
  12985 ****        36.0000  17.2500  59.0000 Du        
  12986 ****        36.0000  17.2500  59.2500 Du        
  12987 ****        36.0000  17.2500  59.5000 Du        
  12988 ****        36.0000  17.2500  59.7500 Du        
  12989 ****        36.0000  17.5000  58.0000 Du        
  12990 ****        36.0000  17.5000  58.2500 Du        
  12991 ****        36.0000  17.5000  58.5000 Du        
  12992 ****        36.0000  17.5000  58.7500 Du        
  12993 ****        36.0000  17.5000  59.0000 Du        
  12994 ****        36.0000  17.5000  59.2500 Du        
  12995 ****        36.0000  17.5000  59.5000 Du        
  12996 ****        36.0000  17.5000  59.7500 Du        
  12997 ****        36.0000  17.7500  58.0000 Du        
  12998 ****        36.0000  17.7500  58.2500 Du        
  12999 ****        36.0000  17.7500  58.5000 Du        
  13000 ****        36.0000  17.7500  58.7500 Du        
  13001 ****        36.0000  17.7500  59.0000 Du        
  13002 ****        36.0000  17.7500  59.2500 Du        
  13003 ****        36.0000  17.7500  59.5000 Du        
  13004 ****        36.0000  17.7500  59.7500 Du        
  13005 ****        36.0000  18.0000  58.0000 Du        
  13006 ****        36.0000  18.0000  58.2500 Du        
  13007 ****        36.0000  18.0000  58.5000 Du        
  13008 ****        36.0000  18.0000  58.7500 Du        
  13009 ****        36.0000  18.0000  59.0000 Du        
  13010 ****        36.0000  18.0000  59.2500 Du        
  13011 ****        36.0000  18.0000  59.5000 Du        
  13012 ****        36.0000  18.2500  58.2500 Du        
  13013 ****        36.0000  18.2500  58.5000 Du        
  13014 ****        36.0000  18.2500  58.7500 Du        
  13015 ****        36.0000  18.2500  59.0000 Du        
  13016 ****        36.0000  18.2500  59.2500 Du        
  13017 ****        36.0000  18.2500  59.5000 Du        
  13018 ****        36.0000  18.5000  58.7500 Du        
  13019 ****        36.0000  18.5000  59.0000 Du        
  13020 ****        36.0000  18.5000  59.2500 Du        
  13021 ****        36.0000  18.5000  59.5000 Du        
  13022 ****        36.0000  18.7500  59.0000 Du        
  13023 ****        36.0000  18.7500  59.2500 Du        
  13024 ****        36.0000  21.7500  60.7500 Du        
  13025 ****        36.0000  21.7500  61.0000 Du        
  13026 ****        36.0000  21.7500  61.2500 Du        
  13027 ****        36.0000  22.0000  60.7500 Du        
  13028 ****        36.0000  22.0000  61.0000 Du        
  13029 ****        36.0000  22.0000  61.2500 Du        
  13030 ****        36.0000  22.0000  61.5000 Du        
  13031 ****        36.0000  22.2500  60.7500 Du        
  13032 ****        36.0000  22.2500  61.0000 Du        
  13033 ****        36.0000  22.2500  61.2500 Du        
  13034 ****        36.0000  22.2500  61.5000 Du        
  13035 ****        36.0000  22.2500  61.7500 Du        
  13036 ****        36.0000  22.5000  61.5000 Du        
  13037 ****        36.0000  22.5000  61.7500 Du        
  13038 ****        36.0000  22.7500  61.5000 Du        
  13039 ****        36.0000  22.7500  61.7500 Du        
  13040 ****        36.0000  23.0000  61.7500 Du        
  13041 ****        36.0000  40.7500  45.0000 Du        
  13042 ****        36.0000  40.7500  45.2500 Du        
  13043 ****        36.0000  41.0000  44.5000 Du        
  13044 ****        36.0000  41.0000  44.7500 Du        
  13045 ****        36.0000  41.0000  45.0000 Du        
  13046 ****        36.0000  41.0000  45.2500 Du        
  13047 ****        36.0000  41.0000  45.5000 Du        
  13048 ****        36.0000  41.2500  44.2500 Du        
  13049 ****        36.0000  41.2500  44.5000 Du        
  13050 ****        36.0000  41.2500  44.7500 Du        
  13051 ****        36.0000  41.2500  45.0000 Du        
  13052 ****        36.0000  41.2500  45.2500 Du        
  13053 ****        36.0000  41.2500  45.5000 Du        
  13054 ****        36.0000  41.2500  45.7500 Du        
  13055 ****        36.0000  41.5000  44.2500 Du        
  13056 ****        36.0000  41.5000  44.5000 Du        
  13057 ****        36.0000  41.5000  44.7500 Du        
  13058 ****        36.0000  41.5000  45.0000 Du        
  13059 ****        36.0000  41.5000  45.2500 Du        
  13060 ****        36.0000  41.5000  45.5000 Du        
  13061 ****        36.0000  41.5000  45.7500 Du        
  13062 ****        36.0000  41.7500  44.2500 Du        
  13063 ****        36.0000  41.7500  44.5000 Du        
  13064 ****        36.0000  41.7500  44.7500 Du        
  13065 ****        36.0000  41.7500  45.0000 Du        
  13066 ****        36.0000  41.7500  45.2500 Du        
  13067 ****        36.0000  41.7500  45.5000 Du        
  13068 ****        36.0000  41.7500  45.7500 Du        
  13069 ****        36.0000  42.0000  44.5000 Du        
  13070 ****        36.0000  42.0000  44.7500 Du        
  13071 ****        36.0000  42.0000  45.0000 Du        
  13072 ****        36.0000  42.0000  45.2500 Du        
  13073 ****        36.0000  42.0000  45.5000 Du        
  13074 ****        36.0000  42.0000  45.7500 Du        
  13075 ****        36.0000  42.0000  46.0000 Du        
  13076 ****        36.0000  42.2500  44.5000 Du        
  13077 ****        36.0000  42.2500  44.7500 Du        
  13078 ****        36.0000  42.2500  45.0000 Du        
  13079 ****        36.0000  42.2500  45.2500 Du        
  13080 ****        36.0000  42.2500  45.5000 Du        
  13081 ****        36.0000  42.2500  45.7500 Du        
  13082 ****        36.0000  42.2500  46.0000 Du        
  13083 ****        36.0000  42.2500  46.2500 Du        
  13084 ****        36.0000  42.5000  44.7500 Du        
  13085 ****        36.0000  42.5000  45.0000 Du        
  13086 ****        36.0000  42.5000  45.2500 Du        
  13087 ****        36.0000  42.5000  45.5000 Du        
  13088 ****        36.0000  42.5000  45.7500 Du        
  13089 ****        36.0000  42.5000  46.0000 Du        
  13090 ****        36.0000  42.5000  46.2500 Du        
  13091 ****        36.0000  42.7500  45.0000 Du        
  13092 ****        36.0000  42.7500  45.2500 Du        
  13093 ****        36.0000  42.7500  45.5000 Du        
  13094 ****        36.0000  42.7500  45.7500 Du        
  13095 ****        36.0000  42.7500  46.0000 Du        
  13096 ****        36.0000  42.7500  46.2500 Du        
  13097 ****        36.0000  43.0000  45.2500 Du        
  13098 ****        36.0000  43.0000  45.5000 Du        
  13099 ****        36.0000  43.0000  45.7500 Du        
  13100 ****        36.0000  43.0000  46.0000 Du        
  13101 ****        36.0000  43.0000  46.2500 Du        
  13102 ****        36.0000  43.0000  46.5000 Du        
  13103 ****        36.0000  43.2500  45.5000 Du        
  13104 ****        36.0000  43.2500  45.7500 Du        
  13105 ****        36.0000  43.2500  46.0000 Du        
  13106 ****        36.0000  43.2500  46.2500 Du        
  13107 ****        36.0000  43.5000  45.7500 Du        
  13108 ****        36.0000  43.5000  46.0000 Du        
  13109 ****        36.0000  43.5000  46.2500 Du        
  13110 ****        36.0000  43.7500  46.2500 Du        
  13111 ****        36.2500  16.2500  58.7500 Du        
  13112 ****        36.2500  16.5000  58.5000 Du        
  13113 ****        36.2500  16.5000  58.7500 Du        
  13114 ****        36.2500  16.5000  59.0000 Du        
  13115 ****        36.2500  16.7500  58.5000 Du        
  13116 ****        36.2500  16.7500  58.7500 Du        
  13117 ****        36.2500  16.7500  59.0000 Du        
  13118 ****        36.2500  16.7500  59.2500 Du        
  13119 ****        36.2500  17.0000  58.2500 Du        
  13120 ****        36.2500  17.0000  58.5000 Du        
  13121 ****        36.2500  17.0000  58.7500 Du        
  13122 ****        36.2500  17.0000  59.0000 Du        
  13123 ****        36.2500  17.0000  59.2500 Du        
  13124 ****        36.2500  17.0000  59.5000 Du        
  13125 ****        36.2500  17.2500  58.0000 Du        
  13126 ****        36.2500  17.2500  58.2500 Du        
  13127 ****        36.2500  17.2500  58.5000 Du        
  13128 ****        36.2500  17.2500  58.7500 Du        
  13129 ****        36.2500  17.2500  59.0000 Du        
  13130 ****        36.2500  17.2500  59.2500 Du        
  13131 ****        36.2500  17.2500  59.5000 Du        
  13132 ****        36.2500  17.5000  58.0000 Du        
  13133 ****        36.2500  17.5000  58.2500 Du        
  13134 ****        36.2500  17.5000  58.5000 Du        
  13135 ****        36.2500  17.5000  58.7500 Du        
  13136 ****        36.2500  17.5000  59.0000 Du        
  13137 ****        36.2500  17.5000  59.2500 Du        
  13138 ****        36.2500  17.5000  59.5000 Du        
  13139 ****        36.2500  17.7500  58.0000 Du        
  13140 ****        36.2500  17.7500  58.2500 Du        
  13141 ****        36.2500  17.7500  58.5000 Du        
  13142 ****        36.2500  17.7500  58.7500 Du        
  13143 ****        36.2500  17.7500  59.0000 Du        
  13144 ****        36.2500  17.7500  59.2500 Du        
  13145 ****        36.2500  17.7500  59.5000 Du        
  13146 ****        36.2500  18.0000  58.2500 Du        
  13147 ****        36.2500  18.0000  58.5000 Du        
  13148 ****        36.2500  18.0000  58.7500 Du        
  13149 ****        36.2500  18.0000  59.0000 Du        
  13150 ****        36.2500  18.0000  59.2500 Du        
  13151 ****        36.2500  18.0000  59.5000 Du        
  13152 ****        36.2500  18.2500  58.5000 Du        
  13153 ****        36.2500  18.2500  58.7500 Du        
  13154 ****        36.2500  18.2500  59.0000 Du        
  13155 ****        36.2500  18.2500  59.2500 Du        
  13156 ****        36.2500  18.2500  59.5000 Du        
  13157 ****        36.2500  18.5000  59.0000 Du        
  13158 ****        36.2500  18.5000  59.2500 Du        
  13159 ****        36.2500  22.0000  61.0000 Du        
  13160 ****        36.2500  22.0000  61.5000 Du        
  13161 ****        36.2500  22.2500  61.0000 Du        
  13162 ****        36.2500  22.2500  61.2500 Du        
  13163 ****        36.2500  22.2500  61.5000 Du        
  13164 ****        36.2500  22.2500  61.7500 Du        
  13165 ****        36.2500  22.5000  61.5000 Du        
  13166 ****        36.2500  22.5000  61.7500 Du        
  13167 ****        36.2500  22.7500  61.5000 Du        
  13168 ****        36.2500  22.7500  61.7500 Du        
  13169 ****        36.2500  22.7500  62.0000 Du        
  13170 ****        36.2500  23.0000  61.5000 Du        
  13171 ****        36.2500  23.0000  61.7500 Du        
  13172 ****        36.2500  23.0000  62.0000 Du        
  13173 ****        36.2500  41.0000  44.7500 Du        
  13174 ****        36.2500  41.0000  45.0000 Du        
  13175 ****        36.2500  41.0000  45.2500 Du        
  13176 ****        36.2500  41.2500  44.2500 Du        
  13177 ****        36.2500  41.2500  44.5000 Du        
  13178 ****        36.2500  41.2500  44.7500 Du        
  13179 ****        36.2500  41.2500  45.0000 Du        
  13180 ****        36.2500  41.2500  45.2500 Du        
  13181 ****        36.2500  41.2500  45.5000 Du        
  13182 ****        36.2500  41.5000  44.2500 Du        
  13183 ****        36.2500  41.5000  44.5000 Du        
  13184 ****        36.2500  41.5000  44.7500 Du        
  13185 ****        36.2500  41.5000  45.0000 Du        
  13186 ****        36.2500  41.5000  45.2500 Du        
  13187 ****        36.2500  41.5000  45.5000 Du        
  13188 ****        36.2500  41.7500  44.2500 Du        
  13189 ****        36.2500  41.7500  44.5000 Du        
  13190 ****        36.2500  41.7500  44.7500 Du        
  13191 ****        36.2500  41.7500  45.0000 Du        
  13192 ****        36.2500  41.7500  45.2500 Du        
  13193 ****        36.2500  41.7500  45.5000 Du        
  13194 ****        36.2500  41.7500  45.7500 Du        
  13195 ****        36.2500  42.0000  44.5000 Du        
  13196 ****        36.2500  42.0000  44.7500 Du        
  13197 ****        36.2500  42.0000  45.0000 Du        
  13198 ****        36.2500  42.0000  45.2500 Du        
  13199 ****        36.2500  42.0000  45.5000 Du        
  13200 ****        36.2500  42.0000  45.7500 Du        
  13201 ****        36.2500  42.2500  44.5000 Du        
  13202 ****        36.2500  42.2500  44.7500 Du        
  13203 ****        36.2500  42.2500  45.0000 Du        
  13204 ****        36.2500  42.2500  45.2500 Du        
  13205 ****        36.2500  42.2500  45.5000 Du        
  13206 ****        36.2500  42.2500  45.7500 Du        
  13207 ****        36.2500  42.2500  46.0000 Du        
  13208 ****        36.2500  42.5000  44.7500 Du        
  13209 ****        36.2500  42.5000  45.0000 Du        
  13210 ****        36.2500  42.5000  45.2500 Du        
  13211 ****        36.2500  42.5000  45.5000 Du        
  13212 ****        36.2500  42.5000  45.7500 Du        
  13213 ****        36.2500  42.5000  46.0000 Du        
  13214 ****        36.2500  42.7500  45.0000 Du        
  13215 ****        36.2500  42.7500  45.2500 Du        
  13216 ****        36.2500  42.7500  45.5000 Du        
  13217 ****        36.2500  42.7500  45.7500 Du        
  13218 ****        36.2500  42.7500  46.0000 Du        
  13219 ****        36.2500  42.7500  46.2500 Du        
  13220 ****        36.2500  43.0000  45.2500 Du        
  13221 ****        36.2500  43.0000  45.5000 Du        
  13222 ****        36.2500  43.0000  45.7500 Du        
  13223 ****        36.2500  43.0000  46.0000 Du        
  13224 ****        36.2500  43.0000  46.2500 Du        
  13225 ****        36.2500  43.2500  45.5000 Du        
  13226 ****        36.2500  43.2500  45.7500 Du        
  13227 ****        36.2500  43.2500  46.0000 Du        
  13228 ****        36.2500  43.5000  45.7500 Du        
  13229 ****        36.2500  43.5000  46.0000 Du        
  13230 ****        36.5000  16.7500  58.7500 Du        
  13231 ****        36.5000  16.7500  59.0000 Du        
  13232 ****        36.5000  17.0000  58.5000 Du        
  13233 ****        36.5000  17.0000  58.7500 Du        
  13234 ****        36.5000  17.0000  59.0000 Du        
  13235 ****        36.5000  17.0000  59.2500 Du        
  13236 ****        36.5000  17.2500  58.2500 Du        
  13237 ****        36.5000  17.2500  58.5000 Du        
  13238 ****        36.5000  17.2500  58.7500 Du        
  13239 ****        36.5000  17.2500  59.0000 Du        
  13240 ****        36.5000  17.2500  59.2500 Du        
  13241 ****        36.5000  17.5000  58.2500 Du        
  13242 ****        36.5000  17.5000  58.5000 Du        
  13243 ****        36.5000  17.5000  58.7500 Du        
  13244 ****        36.5000  17.5000  59.0000 Du        
  13245 ****        36.5000  17.5000  59.2500 Du        
  13246 ****        36.5000  17.7500  58.2500 Du        
  13247 ****        36.5000  17.7500  58.5000 Du        
  13248 ****        36.5000  17.7500  58.7500 Du        
  13249 ****        36.5000  17.7500  59.0000 Du        
  13250 ****        36.5000  17.7500  59.2500 Du        
  13251 ****        36.5000  18.0000  58.5000 Du        
  13252 ****        36.5000  18.0000  58.7500 Du        
  13253 ****        36.5000  18.0000  59.0000 Du        
  13254 ****        36.5000  18.0000  59.2500 Du        
  13255 ****        36.5000  18.2500  58.7500 Du        
  13256 ****        36.5000  18.2500  59.0000 Du        
  13257 ****        36.5000  18.2500  59.2500 Du        
  13258 ****        36.5000  18.5000  59.0000 Du        
  13259 ****        36.5000  22.5000  61.5000 Du        
  13260 ****        36.5000  22.5000  61.7500 Du        
  13261 ****        36.5000  22.7500  61.5000 Du        
  13262 ****        36.5000  22.7500  61.7500 Du        
  13263 ****        36.5000  22.7500  62.0000 Du        
  13264 ****        36.5000  23.0000  61.7500 Du        
  13265 ****        36.5000  23.0000  62.0000 Du        
  13266 ****        36.5000  23.2500  62.0000 Du        
  13267 ****        36.5000  41.2500  44.2500 Du        
  13268 ****        36.5000  41.2500  44.5000 Du        
  13269 ****        36.5000  41.2500  44.7500 Du        
  13270 ****        36.5000  41.2500  45.0000 Du        
  13271 ****        36.5000  41.2500  45.2500 Du        
  13272 ****        36.5000  41.5000  44.2500 Du        
  13273 ****        36.5000  41.5000  44.5000 Du        
  13274 ****        36.5000  41.5000  44.7500 Du        
  13275 ****        36.5000  41.5000  45.0000 Du        
  13276 ****        36.5000  41.5000  45.2500 Du        
  13277 ****        36.5000  41.5000  45.5000 Du        
  13278 ****        36.5000  41.7500  44.5000 Du        
  13279 ****        36.5000  41.7500  44.7500 Du        
  13280 ****        36.5000  41.7500  45.0000 Du        
  13281 ****        36.5000  41.7500  45.2500 Du        
  13282 ****        36.5000  41.7500  45.5000 Du        
  13283 ****        36.5000  42.0000  44.5000 Du        
  13284 ****        36.5000  42.0000  44.7500 Du        
  13285 ****        36.5000  42.0000  45.0000 Du        
  13286 ****        36.5000  42.0000  45.2500 Du        
  13287 ****        36.5000  42.0000  45.5000 Du        
  13288 ****        36.5000  42.0000  45.7500 Du        
  13289 ****        36.5000  42.2500  44.7500 Du        
  13290 ****        36.5000  42.2500  45.0000 Du        
  13291 ****        36.5000  42.2500  45.2500 Du        
  13292 ****        36.5000  42.2500  45.5000 Du        
  13293 ****        36.5000  42.2500  45.7500 Du        
  13294 ****        36.5000  42.5000  45.0000 Du        
  13295 ****        36.5000  42.5000  45.2500 Du        
  13296 ****        36.5000  42.5000  45.5000 Du        
  13297 ****        36.5000  42.5000  45.7500 Du        
  13298 ****        36.5000  42.7500  45.2500 Du        
  13299 ****        36.5000  42.7500  45.5000 Du        
  13300 ****        36.5000  42.7500  45.7500 Du        
  13301 ****        36.5000  43.0000  45.5000 Du        
  13302 ****        36.5000  43.0000  45.7500 Du        
  13303 ****        36.5000  43.0000  46.0000 Du        
  13304 ****        36.5000  43.2500  45.7500 Du        
  13305 ****        36.5000  43.2500  46.0000 Du        
  13306 ****        36.7500  17.2500  58.7500 Du        
  13307 ****        36.7500  17.2500  59.0000 Du        
  13308 ****        36.7500  17.5000  58.5000 Du        
  13309 ****        36.7500  17.5000  58.7500 Du        
  13310 ****        36.7500  17.5000  59.0000 Du        
  13311 ****        36.7500  17.7500  58.5000 Du        
  13312 ****        36.7500  17.7500  58.7500 Du        
  13313 ****        36.7500  17.7500  59.0000 Du        
  13314 ****        36.7500  18.0000  58.7500 Du        
  13315 ****        36.7500  18.0000  59.0000 Du        
  13316 ****        36.7500  18.2500  59.0000 Du        
  13317 ****        36.7500  23.0000  61.7500 Du        
  13318 ****        36.7500  23.0000  62.0000 Du        
  13319 ****        36.7500  23.2500  62.0000 Du        
  13320 ****        36.7500  23.2500  62.2500 Du        
  13321 ****        36.7500  24.0000  57.7500 Du        
  13322 ****        36.7500  24.0000  58.0000 Du        
  13323 ****        36.7500  24.2500  58.0000 Du        
  13324 ****        36.7500  35.7500  53.7500 Du        
  13325 ****        36.7500  41.2500  44.7500 Du        
  13326 ****        36.7500  41.2500  45.0000 Du        
  13327 ****        36.7500  41.5000  44.5000 Du        
  13328 ****        36.7500  41.5000  44.7500 Du        
  13329 ****        36.7500  41.5000  45.0000 Du        
  13330 ****        36.7500  41.5000  45.2500 Du        
  13331 ****        36.7500  41.7500  44.5000 Du        
  13332 ****        36.7500  41.7500  44.7500 Du        
  13333 ****        36.7500  41.7500  45.0000 Du        
  13334 ****        36.7500  41.7500  45.2500 Du        
  13335 ****        36.7500  41.7500  45.5000 Du        
  13336 ****        36.7500  42.0000  44.7500 Du        
  13337 ****        36.7500  42.0000  45.0000 Du        
  13338 ****        36.7500  42.0000  45.2500 Du        
  13339 ****        36.7500  42.0000  45.5000 Du        
  13340 ****        36.7500  42.2500  44.7500 Du        
  13341 ****        36.7500  42.2500  45.0000 Du        
  13342 ****        36.7500  42.2500  45.2500 Du        
  13343 ****        36.7500  42.2500  45.5000 Du        
  13344 ****        36.7500  42.2500  45.7500 Du        
  13345 ****        36.7500  42.5000  45.0000 Du        
  13346 ****        36.7500  42.5000  45.2500 Du        
  13347 ****        36.7500  42.5000  45.5000 Du        
  13348 ****        36.7500  42.7500  45.2500 Du        
  13349 ****        36.7500  42.7500  45.5000 Du        
  13350 ****        36.7500  42.7500  45.7500 Du        
  13351 ****        36.7500  43.0000  45.5000 Du        
  13352 ****        36.7500  43.0000  45.7500 Du        
  13353 ****        36.7500  43.2500  45.7500 Du        
  13354 ****        37.0000  23.7500  57.2500 Du        
  13355 ****        37.0000  24.0000  57.2500 Du        
  13356 ****        37.0000  24.0000  57.5000 Du        
  13357 ****        37.0000  24.0000  57.7500 Du        
  13358 ****        37.0000  24.0000  58.0000 Du        
  13359 ****        37.0000  24.2500  57.7500 Du        
  13360 ****        37.0000  24.2500  58.0000 Du        
  13361 ****        37.0000  24.2500  58.2500 Du        
  13362 ****        37.0000  24.5000  57.7500 Du        
  13363 ****        37.0000  24.5000  58.0000 Du        
  13364 ****        37.0000  24.5000  58.2500 Du        
  13365 ****        37.0000  24.7500  58.0000 Du        
  13366 ****        37.0000  41.5000  44.5000 Du        
  13367 ****        37.0000  41.5000  44.7500 Du        
  13368 ****        37.0000  41.5000  45.0000 Du        
  13369 ****        37.0000  41.5000  45.2500 Du        
  13370 ****        37.0000  41.7500  44.5000 Du        
  13371 ****        37.0000  41.7500  44.7500 Du        
  13372 ****        37.0000  41.7500  45.0000 Du        
  13373 ****        37.0000  41.7500  45.2500 Du        
  13374 ****        37.0000  42.0000  44.7500 Du        
  13375 ****        37.0000  42.0000  45.0000 Du        
  13376 ****        37.0000  42.0000  45.2500 Du        
  13377 ****        37.0000  42.0000  45.5000 Du        
  13378 ****        37.0000  42.2500  45.0000 Du        
  13379 ****        37.0000  42.2500  45.2500 Du        
  13380 ****        37.0000  42.2500  45.5000 Du        
  13381 ****        37.0000  42.5000  45.2500 Du        
  13382 ****        37.0000  42.5000  45.5000 Du        
  13383 ****        37.0000  42.7500  45.5000 Du        
  13384 ****        37.0000  43.0000  45.7500 Du        
  13385 ****        37.2500  23.7500  57.2500 Du        
  13386 ****        37.2500  24.0000  57.0000 Du        
  13387 ****        37.2500  24.0000  57.2500 Du        
  13388 ****        37.2500  24.0000  57.5000 Du        
  13389 ****        37.2500  24.0000  57.7500 Du        
  13390 ****        37.2500  24.0000  58.0000 Du        
  13391 ****        37.2500  24.2500  57.2500 Du        
  13392 ****        37.2500  24.2500  57.5000 Du        
  13393 ****        37.2500  24.2500  57.7500 Du        
  13394 ****        37.2500  24.2500  58.0000 Du        
  13395 ****        37.2500  24.2500  58.2500 Du        
  13396 ****        37.2500  24.5000  57.7500 Du        
  13397 ****        37.2500  24.5000  58.0000 Du        
  13398 ****        37.2500  24.5000  58.2500 Du        
  13399 ****        37.2500  24.7500  57.7500 Du        
  13400 ****        37.2500  24.7500  58.0000 Du        
  13401 ****        37.2500  24.7500  58.2500 Du        
  13402 ****        37.2500  25.0000  58.0000 Du        
  13403 ****        37.2500  25.0000  58.2500 Du        
  13404 ****        37.2500  41.5000  44.7500 Du        
  13405 ****        37.2500  41.5000  45.0000 Du        
  13406 ****        37.2500  41.7500  44.7500 Du        
  13407 ****        37.2500  41.7500  45.0000 Du        
  13408 ****        37.2500  41.7500  45.2500 Du        
  13409 ****        37.2500  42.0000  44.7500 Du        
  13410 ****        37.2500  42.0000  45.0000 Du        
  13411 ****        37.2500  42.0000  45.2500 Du        
  13412 ****        37.2500  42.0000  45.5000 Du        
  13413 ****        37.2500  42.2500  45.0000 Du        
  13414 ****        37.2500  42.2500  45.2500 Du        
  13415 ****        37.2500  42.2500  45.5000 Du        
  13416 ****        37.2500  42.5000  45.2500 Du        
  13417 ****        37.2500  42.7500  45.5000 Du        
  13418 ****        37.5000  24.0000  57.2500 Du        
  13419 ****        37.5000  24.0000  57.5000 Du        
  13420 ****        37.5000  24.0000  57.7500 Du        
  13421 ****        37.5000  24.0000  58.0000 Du        
  13422 ****        37.5000  24.2500  57.2500 Du        
  13423 ****        37.5000  24.2500  57.5000 Du        
  13424 ****        37.5000  24.2500  57.7500 Du        
  13425 ****        37.5000  24.2500  58.0000 Du        
  13426 ****        37.5000  24.2500  58.2500 Du        
  13427 ****        37.5000  24.5000  57.7500 Du        
  13428 ****        37.5000  24.5000  58.0000 Du        
  13429 ****        37.5000  24.5000  58.2500 Du        
  13430 ****        37.5000  24.7500  57.7500 Du        
  13431 ****        37.5000  24.7500  58.0000 Du        
  13432 ****        37.5000  24.7500  58.2500 Du        
  13433 ****        37.5000  25.0000  58.0000 Du        
  13434 ****        37.5000  41.7500  45.0000 Du        
  13435 ****        37.5000  42.0000  45.0000 Du        
  13436 ****        37.5000  42.0000  45.2500 Du        
  13437 ****        37.5000  42.2500  45.2500 Du        
  13438 ****        37.7500  24.0000  57.2500 Du        
  13439 ****        37.7500  24.0000  57.5000 Du        
  13440 ****        37.7500  24.0000  57.7500 Du        
  13441 ****        37.7500  24.0000  58.0000 Du        
  13442 ****        37.7500  24.2500  57.5000 Du        
  13443 ****        37.7500  24.2500  57.7500 Du        
  13444 ****        37.7500  24.2500  58.0000 Du        
  13445 ****        37.7500  24.2500  58.2500 Du        
  13446 ****        37.7500  24.5000  57.7500 Du        
  13447 ****        37.7500  24.5000  58.0000 Du        
  13448 ****        37.7500  24.5000  58.2500 Du        
  13449 ****        37.7500  24.7500  58.0000 Du        
  13450 ****        37.7500  24.7500  58.2500 Du        
  13451 ****        37.7500  25.0000  58.0000 Du        
  13452 ****        37.7500  42.0000  45.0000 Du        
  13453 ****        37.7500  42.0000  45.2500 Du        
  13454 ****        37.7500  42.2500  45.2500 Du        
  13455 ****        38.0000  24.0000  57.7500 Du        
  13456 ****        38.0000  24.0000  58.0000 Du        
  13457 ****        38.0000  24.0000  58.2500 Du        
  13458 ****        38.0000  24.2500  57.7500 Du        
  13459 ****        38.0000  24.2500  58.0000 Du        
  13460 ****        38.0000  24.2500  58.2500 Du        
  13461 ****        38.0000  24.5000  58.0000 Du        
  13462 ****        38.0000  24.5000  58.2500 Du        
  13463 ****        38.0000  24.7500  58.0000 Du        
  13464 ****        38.0000  24.7500  58.2500 Du        
  13465 ****        38.0000  35.0000  53.2500 Du        
  13466 ****        38.0000  42.0000  45.2500 Du        
  13467 ****        38.2500  24.0000  57.7500 Du        
  13468 ****        38.2500  24.0000  58.0000 Du        
  13469 ****        38.2500  24.0000  58.2500 Du        
  13470 ****        38.2500  24.2500  58.0000 Du        
  13471 ****        38.2500  24.2500  58.2500 Du        
  13472 ****        38.2500  24.5000  58.0000 Du        
  13473 ****        38.2500  24.5000  58.2500 Du        
  13474 ****        38.2500  35.0000  53.0000 Du        
  13475 ****        38.5000  23.7500  58.2500 Du        
  13476 ****        38.5000  24.0000  58.0000 Du        
  13477 ****        38.5000  24.0000  58.2500 Du        
  13478 ****        38.5000  24.2500  58.0000 Du        
  13479 ****        38.5000  24.2500  58.2500 Du        
  13480 ****        38.5000  24.5000  58.2500 Du        
  13481 ****        38.7500  23.7500  58.0000 Du        
  13482 ****        38.7500  23.7500  58.2500 Du        
  13483 ****        38.7500  24.0000  58.0000 Du        
  13484 ****        38.7500  24.0000  58.2500 Du        
  13485 ****        38.7500  24.2500  58.0000 Du        
  13486 ****        38.7500  24.2500  58.2500 Du        
  13487 ****        38.7500  24.5000  58.2500 Du        
  13488 ****        39.0000  23.7500  58.0000 Du        
  13489 ****        39.0000  23.7500  58.2500 Du        
  13490 ****        39.0000  24.0000  58.0000 Du        
  13491 ****        39.0000  24.0000  58.2500 Du        
  13492 ****        39.0000  24.2500  58.2500 Du        
  13493 ****        39.2500  23.7500  58.0000 Du        
  13494 ****        39.2500  23.7500  58.2500 Du        
  13495 ****        39.2500  23.7500  58.5000 Du        
  13496 ****        39.2500  24.0000  58.0000 Du        
  13497 ****        39.2500  24.0000  58.2500 Du        
  13498 ****        39.2500  24.0000  58.5000 Du        
  13499 ****        39.2500  24.0000  58.7500 Du        
  13500 ****        39.2500  24.2500  58.2500 Du        
  13501 ****        39.5000  23.2500  58.2500 Du        
  13502 ****        39.5000  23.5000  58.0000 Du        
  13503 ****        39.5000  23.5000  58.2500 Du        
  13504 ****        39.5000  23.7500  58.0000 Du        
  13505 ****        39.5000  23.7500  58.2500 Du        
  13506 ****        39.5000  24.0000  58.0000 Du        
  13507 ****        39.5000  24.0000  58.2500 Du        
  13508 ****        39.5000  24.2500  58.2500 Du        
  13509 ****        39.7500  23.2500  57.7500 Du        
  13510 ****        39.7500  23.2500  58.0000 Du        
  13511 ****        39.7500  23.2500  58.2500 Du        
  13512 ****        39.7500  23.5000  57.7500 Du        
  13513 ****        39.7500  23.5000  58.0000 Du        
  13514 ****        39.7500  23.5000  58.2500 Du        
  13515 ****        39.7500  23.5000  58.5000 Du        
  13516 ****        39.7500  23.7500  57.7500 Du        
  13517 ****        39.7500  23.7500  58.0000 Du        
  13518 ****        39.7500  23.7500  58.2500 Du        
  13519 ****        39.7500  23.7500  58.5000 Du        
  13520 ****        39.7500  23.7500  58.7500 Du        
  13521 ****        39.7500  24.0000  58.0000 Du        
  13522 ****        39.7500  24.0000  58.2500 Du        
  13523 ****        39.7500  24.0000  58.5000 Du        
  13524 ****        39.7500  24.2500  58.2500 Du        
  13525 ****        40.0000  23.0000  58.0000 Du        
  13526 ****        40.0000  23.0000  58.2500 Du        
  13527 ****        40.0000  23.2500  57.7500 Du        
  13528 ****        40.0000  23.2500  58.0000 Du        
  13529 ****        40.0000  23.2500  58.2500 Du        
  13530 ****        40.0000  23.2500  58.5000 Du        
  13531 ****        40.0000  23.5000  57.7500 Du        
  13532 ****        40.0000  23.5000  58.0000 Du        
  13533 ****        40.0000  23.5000  58.2500 Du        
  13534 ****        40.0000  23.5000  58.5000 Du        
  13535 ****        40.0000  23.7500  57.7500 Du        
  13536 ****        40.0000  23.7500  58.0000 Du        
  13537 ****        40.0000  23.7500  58.2500 Du        
  13538 ****        40.0000  23.7500  58.5000 Du        
  13539 ****        40.0000  23.7500  58.7500 Du        
  13540 ****        40.0000  24.0000  58.0000 Du        
  13541 ****        40.0000  24.0000  58.2500 Du        
  13542 ****        40.0000  24.0000  58.5000 Du        
  13543 ****        40.0000  24.0000  58.7500 Du        
  13544 ****        40.0000  24.2500  58.2500 Du        
  13545 ****        40.2500  23.0000  57.7500 Du        
  13546 ****        40.2500  23.0000  58.0000 Du        
  13547 ****        40.2500  23.2500  57.5000 Du        
  13548 ****        40.2500  23.2500  57.7500 Du        
  13549 ****        40.2500  23.2500  58.0000 Du        
  13550 ****        40.2500  23.2500  58.2500 Du        
  13551 ****        40.2500  23.5000  57.7500 Du        
  13552 ****        40.2500  23.5000  58.0000 Du        
  13553 ****        40.2500  23.5000  58.2500 Du        
  13554 ****        40.2500  23.7500  57.7500 Du        
  13555 ****        40.2500  23.7500  58.0000 Du        
  13556 ****        40.2500  23.7500  58.2500 Du        
  13557 ****        40.2500  23.7500  58.5000 Du        
  13558 ****        40.2500  24.0000  58.0000 Du        
  13559 ****        40.2500  24.0000  58.2500 Du        
  13560 ****        40.2500  24.0000  58.5000 Du        
  13561 ****        40.2500  24.2500  58.2500 Du        
  13562 ****        43.0000  25.5000  56.0000 Du        
  13563 ****        43.0000  25.5000  56.2500 Du        
  13564 ****        43.0000  25.7500  56.0000 Du        
  13565 ****        43.0000  25.7500  56.2500 Du        
  13566 ****        43.0000  26.0000  55.7500 Du        
  13567 ****        43.0000  26.0000  56.0000 Du        
  13568 ****        43.0000  26.0000  56.2500 Du        
  13569 ****        43.0000  26.2500  56.0000 Du        
  13570 ****        43.0000  32.7500  50.2500 Du        
  13571 ****        43.0000  33.0000  50.2500 Du        
  13572 ****        43.0000  33.2500  50.0000 Du        
  13573 ****        43.0000  33.2500  50.2500 Du        
  13574 ****        43.2500  25.2500  56.0000 Du        
  13575 ****        43.2500  25.2500  56.2500 Du        
  13576 ****        43.2500  25.5000  56.0000 Du        
  13577 ****        43.2500  25.5000  56.2500 Du        
  13578 ****        43.2500  25.7500  55.7500 Du        
  13579 ****        43.2500  25.7500  56.0000 Du        
  13580 ****        43.2500  25.7500  56.2500 Du        
  13581 ****        43.2500  26.0000  55.7500 Du        
  13582 ****        43.2500  26.0000  56.0000 Du        
  13583 ****        43.2500  26.0000  56.2500 Du        
  13584 ****        43.2500  26.2500  55.7500 Du        
  13585 ****        43.2500  26.2500  56.0000 Du        
  13586 ****        43.2500  26.2500  56.2500 Du        
  13587 ****        43.2500  26.5000  56.0000 Du        
  13588 ****        43.2500  31.2500  49.0000 Du        
  13589 ****        43.2500  31.5000  49.0000 Du        
  13590 ****        43.2500  31.5000  49.2500 Du        
  13591 ****        43.2500  31.7500  49.0000 Du        
  13592 ****        43.2500  31.7500  49.2500 Du        
  13593 ****        43.2500  32.0000  49.0000 Du        
  13594 ****        43.2500  32.0000  49.2500 Du        
  13595 ****        43.2500  32.0000  49.5000 Du        
  13596 ****        43.2500  32.0000  49.7500 Du        
  13597 ****        43.2500  32.2500  49.2500 Du        
  13598 ****        43.2500  32.2500  49.5000 Du        
  13599 ****        43.2500  32.2500  49.7500 Du        
  13600 ****        43.2500  32.5000  49.2500 Du        
  13601 ****        43.2500  32.5000  49.5000 Du        
  13602 ****        43.2500  32.5000  49.7500 Du        
  13603 ****        43.2500  32.5000  50.0000 Du        
  13604 ****        43.2500  32.7500  49.2500 Du        
  13605 ****        43.2500  32.7500  49.5000 Du        
  13606 ****        43.2500  32.7500  49.7500 Du        
  13607 ****        43.2500  32.7500  50.0000 Du        
  13608 ****        43.2500  32.7500  50.2500 Du        
  13609 ****        43.2500  33.0000  49.7500 Du        
  13610 ****        43.2500  33.0000  50.0000 Du        
  13611 ****        43.2500  33.0000  50.2500 Du        
  13612 ****        43.2500  33.2500  49.7500 Du        
  13613 ****        43.2500  33.2500  50.0000 Du        
  13614 ****        43.2500  33.2500  50.2500 Du        
  13615 ****        43.5000  25.2500  56.0000 Du        
  13616 ****        43.5000  25.2500  56.2500 Du        
  13617 ****        43.5000  25.5000  55.7500 Du        
  13618 ****        43.5000  25.5000  56.0000 Du        
  13619 ****        43.5000  25.5000  56.2500 Du        
  13620 ****        43.5000  25.7500  55.7500 Du        
  13621 ****        43.5000  25.7500  56.0000 Du        
  13622 ****        43.5000  25.7500  56.2500 Du        
  13623 ****        43.5000  26.0000  55.7500 Du        
  13624 ****        43.5000  26.0000  56.0000 Du        
  13625 ****        43.5000  26.0000  56.2500 Du        
  13626 ****        43.5000  26.2500  55.7500 Du        
  13627 ****        43.5000  26.2500  56.0000 Du        
  13628 ****        43.5000  26.2500  56.2500 Du        
  13629 ****        43.5000  31.5000  49.0000 Du        
  13630 ****        43.5000  31.5000  49.2500 Du        
  13631 ****        43.5000  31.7500  49.0000 Du        
  13632 ****        43.5000  31.7500  49.2500 Du        
  13633 ****        43.5000  31.7500  49.5000 Du        
  13634 ****        43.5000  32.0000  48.7500 Du        
  13635 ****        43.5000  32.0000  49.0000 Du        
  13636 ****        43.5000  32.0000  49.2500 Du        
  13637 ****        43.5000  32.0000  49.5000 Du        
  13638 ****        43.5000  32.0000  49.7500 Du        
  13639 ****        43.5000  32.2500  48.7500 Du        
  13640 ****        43.5000  32.2500  49.0000 Du        
  13641 ****        43.5000  32.2500  49.2500 Du        
  13642 ****        43.5000  32.2500  49.5000 Du        
  13643 ****        43.5000  32.2500  49.7500 Du        
  13644 ****        43.5000  32.2500  50.0000 Du        
  13645 ****        43.5000  32.5000  48.7500 Du        
  13646 ****        43.5000  32.5000  49.0000 Du        
  13647 ****        43.5000  32.5000  49.2500 Du        
  13648 ****        43.5000  32.5000  49.5000 Du        
  13649 ****        43.5000  32.5000  49.7500 Du        
  13650 ****        43.5000  32.5000  50.0000 Du        
  13651 ****        43.5000  32.7500  48.7500 Du        
  13652 ****        43.5000  32.7500  49.0000 Du        
  13653 ****        43.5000  32.7500  49.2500 Du        
  13654 ****        43.5000  32.7500  49.5000 Du        
  13655 ****        43.5000  32.7500  49.7500 Du        
  13656 ****        43.5000  32.7500  50.0000 Du        
  13657 ****        43.5000  33.0000  48.7500 Du        
  13658 ****        43.5000  33.0000  49.0000 Du        
  13659 ****        43.5000  33.0000  49.2500 Du        
  13660 ****        43.5000  33.0000  49.5000 Du        
  13661 ****        43.5000  33.2500  49.0000 Du        
  13662 ****        43.5000  33.2500  49.2500 Du        
  13663 ****        43.7500  25.0000  56.0000 Du        
  13664 ****        43.7500  25.0000  56.2500 Du        
  13665 ****        43.7500  25.2500  55.7500 Du        
  13666 ****        43.7500  25.2500  56.0000 Du        
  13667 ****        43.7500  25.2500  56.2500 Du        
  13668 ****        43.7500  25.5000  55.7500 Du        
  13669 ****        43.7500  25.5000  56.0000 Du        
  13670 ****        43.7500  25.5000  56.2500 Du        
  13671 ****        43.7500  25.7500  55.5000 Du        
  13672 ****        43.7500  25.7500  55.7500 Du        
  13673 ****        43.7500  25.7500  56.0000 Du        
  13674 ****        43.7500  25.7500  56.2500 Du        
  13675 ****        43.7500  26.0000  55.5000 Du        
  13676 ****        43.7500  26.0000  55.7500 Du        
  13677 ****        43.7500  26.0000  56.0000 Du        
  13678 ****        43.7500  26.0000  56.2500 Du        
  13679 ****        43.7500  26.2500  55.5000 Du        
  13680 ****        43.7500  26.2500  55.7500 Du        
  13681 ****        43.7500  26.2500  56.0000 Du        
  13682 ****        43.7500  26.2500  56.2500 Du        
  13683 ****        43.7500  31.5000  49.0000 Du        
  13684 ****        43.7500  31.5000  49.2500 Du        
  13685 ****        43.7500  31.7500  49.0000 Du        
  13686 ****        43.7500  31.7500  49.2500 Du        
  13687 ****        43.7500  31.7500  49.5000 Du        
  13688 ****        43.7500  31.7500  49.7500 Du        
  13689 ****        43.7500  32.0000  48.7500 Du        
  13690 ****        43.7500  32.0000  49.0000 Du        
  13691 ****        43.7500  32.0000  49.2500 Du        
  13692 ****        43.7500  32.0000  49.5000 Du        
  13693 ****        43.7500  32.0000  49.7500 Du        
  13694 ****        43.7500  32.0000  50.0000 Du        
  13695 ****        43.7500  32.2500  48.7500 Du        
  13696 ****        43.7500  32.2500  49.0000 Du        
  13697 ****        43.7500  32.2500  49.2500 Du        
  13698 ****        43.7500  32.2500  49.5000 Du        
  13699 ****        43.7500  32.2500  49.7500 Du        
  13700 ****        43.7500  32.2500  50.0000 Du        
  13701 ****        43.7500  32.2500  50.2500 Du        
  13702 ****        43.7500  32.5000  48.5000 Du        
  13703 ****        43.7500  32.5000  48.7500 Du        
  13704 ****        43.7500  32.5000  49.0000 Du        
  13705 ****        43.7500  32.5000  49.2500 Du        
  13706 ****        43.7500  32.5000  49.5000 Du        
  13707 ****        43.7500  32.5000  49.7500 Du        
  13708 ****        43.7500  32.5000  50.0000 Du        
  13709 ****        43.7500  32.7500  48.5000 Du        
  13710 ****        43.7500  32.7500  48.7500 Du        
  13711 ****        43.7500  32.7500  49.0000 Du        
  13712 ****        43.7500  32.7500  49.2500 Du        
  13713 ****        43.7500  32.7500  49.5000 Du        
  13714 ****        43.7500  32.7500  49.7500 Du        
  13715 ****        43.7500  32.7500  50.0000 Du        
  13716 ****        43.7500  33.0000  48.2500 Du        
  13717 ****        43.7500  33.0000  48.5000 Du        
  13718 ****        43.7500  33.0000  48.7500 Du        
  13719 ****        43.7500  33.0000  49.0000 Du        
  13720 ****        43.7500  33.0000  49.2500 Du        
  13721 ****        43.7500  33.0000  49.5000 Du        
  13722 ****        43.7500  33.0000  49.7500 Du        
  13723 ****        43.7500  33.2500  48.2500 Du        
  13724 ****        43.7500  33.2500  48.5000 Du        
  13725 ****        43.7500  33.2500  48.7500 Du        
  13726 ****        43.7500  33.2500  49.0000 Du        
  13727 ****        43.7500  33.2500  49.2500 Du        
  13728 ****        44.0000  31.5000  49.2500 Du        
  13729 ****        44.0000  31.7500  49.0000 Du        
  13730 ****        44.0000  31.7500  49.2500 Du        
  13731 ****        44.0000  31.7500  49.5000 Du        
  13732 ****        44.0000  31.7500  49.7500 Du        
  13733 ****        44.0000  32.0000  48.7500 Du        
  13734 ****        44.0000  32.0000  49.0000 Du        
  13735 ****        44.0000  32.0000  49.2500 Du        
  13736 ****        44.0000  32.0000  49.5000 Du        
  13737 ****        44.0000  32.0000  49.7500 Du        
  13738 ****        44.0000  32.0000  50.0000 Du        
  13739 ****        44.0000  32.2500  48.7500 Du        
  13740 ****        44.0000  32.2500  49.0000 Du        
  13741 ****        44.0000  32.2500  49.2500 Du        
  13742 ****        44.0000  32.2500  49.5000 Du        
  13743 ****        44.0000  32.2500  49.7500 Du        
  13744 ****        44.0000  32.2500  50.0000 Du        
  13745 ****        44.0000  32.2500  50.2500 Du        
  13746 ****        44.0000  32.5000  48.5000 Du        
  13747 ****        44.0000  32.5000  48.7500 Du        
  13748 ****        44.0000  32.5000  49.0000 Du        
  13749 ****        44.0000  32.5000  49.2500 Du        
  13750 ****        44.0000  32.5000  49.5000 Du        
  13751 ****        44.0000  32.5000  49.7500 Du        
  13752 ****        44.0000  32.5000  50.0000 Du        
  13753 ****        44.0000  32.7500  48.5000 Du        
  13754 ****        44.0000  32.7500  48.7500 Du        
  13755 ****        44.0000  32.7500  49.0000 Du        
  13756 ****        44.0000  32.7500  49.2500 Du        
  13757 ****        44.0000  32.7500  49.5000 Du        
  13758 ****        44.0000  32.7500  49.7500 Du        
  13759 ****        44.0000  32.7500  50.0000 Du        
  13760 ****        44.0000  33.0000  48.0000 Du        
  13761 ****        44.0000  33.0000  48.2500 Du        
  13762 ****        44.0000  33.0000  48.5000 Du        
  13763 ****        44.0000  33.0000  48.7500 Du        
  13764 ****        44.0000  33.0000  49.0000 Du        
  13765 ****        44.0000  33.0000  49.2500 Du        
  13766 ****        44.0000  33.2500  48.0000 Du        
  13767 ****        44.0000  33.2500  48.2500 Du        
  13768 ****        44.0000  33.2500  48.7500 Du        
  13769 ****        44.2500  31.7500  49.2500 Du        
  13770 ****        44.2500  31.7500  49.5000 Du        
  13771 ****        44.2500  31.7500  49.7500 Du        
  13772 ****        44.2500  31.7500  50.0000 Du        
  13773 ****        44.2500  32.0000  49.2500 Du        
  13774 ****        44.2500  32.0000  49.5000 Du        
  13775 ****        44.2500  32.0000  49.7500 Du        
  13776 ****        44.2500  32.0000  50.0000 Du        
  13777 ****        44.2500  32.0000  50.2500 Du        
  13778 ****        44.2500  32.2500  48.7500 Du        
  13779 ****        44.2500  32.2500  49.0000 Du        
  13780 ****        44.2500  32.2500  49.2500 Du        
  13781 ****        44.2500  32.2500  49.5000 Du        
  13782 ****        44.2500  32.2500  49.7500 Du        
  13783 ****        44.2500  32.2500  50.0000 Du        
  13784 ****        44.2500  32.2500  50.2500 Du        
  13785 ****        44.2500  32.5000  48.7500 Du        
  13786 ****        44.2500  32.5000  49.0000 Du        
  13787 ****        44.2500  32.5000  49.2500 Du        
  13788 ****        44.2500  32.5000  49.5000 Du        
  13789 ****        44.2500  32.7500  48.7500 Du        
  13790 ****        44.2500  32.7500  49.0000 Du        
  13791 ****        44.2500  32.7500  49.2500 Du        
  13792 ****        44.2500  33.0000  48.2500 Du        
  13793 ****        44.2500  33.2500  47.7500 Du        
  13794 ****        44.2500  33.2500  48.2500 Du        
  13795 ****        44.5000  31.7500  49.7500 Du        
  13796 ****        44.5000  31.7500  50.0000 Du        
  13797 ****        44.5000  32.0000  49.7500 Du        
  13798 ****        44.7500  31.7500  50.0000 Du        
