#       Name:                CT1002167954
#       Creating user name   hitesit
#       Creation time:       Sun Apr 16 22:50:40 2023


#       File generated by GOLD software.
#

@<TRIPOS>MOLECULE
CT1002167954|ligand_prepared|mol2|1|dock4
    29    30     1
SMALL
NO_CHARGES


@<TRIPOS>ATOM
      1 C1          33.7512  19.1802  58.9645 C.3            1 RES1               0.0000
      2 C2          32.3102  19.1794  59.5144 C.ar           1 RES1               0.0000
      3 C3          33.6485  19.5746  57.4941 C.2            1 RES1               0.0000
      4 C4          34.5341  20.1695  59.8208 C.2            1 RES1               0.0000
      5 C5          34.4558  17.8066  59.0566 C.3            1 RES1               0.0000
      6 C6          31.5822  17.9960  59.5925 C.ar           1 RES1               0.0000
      7 C7          31.6976  20.3518  59.9490 C.ar           1 RES1               0.0000
      8 N8          34.0523  20.8301  57.1470 N.am           1 RES1               0.0000
      9 O9          33.1833  18.8096  56.6583 O.2            1 RES1               0.0000
     10 N10         35.0079  21.3054  59.2185 N.am           1 RES1               0.0000
     11 O11         34.7306  19.9835  61.0154 O.2            1 RES1               0.0000
     12 C12         35.9511  17.8653  58.7868 C.3            1 RES1               0.0000
     13 C13         30.2896  17.9843  60.0899 C.ar           1 RES1               0.0000
     14 C14         30.4047  20.3379  60.4459 C.ar           1 RES1               0.0000
     15 C15         34.7761  21.6953  57.9275 C.2            1 RES1               0.0000
     16 C16         29.7002  19.1550  60.5173 C.ar           1 RES1               0.0000
     17 O17         35.1903  22.7581  57.4736 O.2            1 RES1               0.0000
     18 H18         34.2940  17.3933  60.0598 H              1 RES1               0.0000
     19 H19         33.9932  17.1233  58.3338 H              1 RES1               0.0000
     20 H20         32.0286  17.0652  59.2586 H              1 RES1               0.0000
     21 H21         32.2324  21.2942  59.9012 H              1 RES1               0.0000
     22 H22         33.7921  21.1558  56.2216 H              1 RES1               0.0000
     23 H23         35.5871  21.9170  59.7849 H              1 RES1               0.0000
     24 H24         36.3961  16.8755  58.8640 H              1 RES1               0.0000
     25 H25         36.1481  18.2483  57.7876 H              1 RES1               0.0000
     26 H26         36.4471  18.5167  59.5034 H              1 RES1               0.0000
     27 H27         29.7389  17.0509  60.1427 H              1 RES1               0.0000
     28 H28         29.9446  21.2618  60.7805 H              1 RES1               0.0000
     29 H29         28.6877  19.1455  60.9072 H              1 RES1               0.0000
@<TRIPOS>BOND
    1    1    2 1     
    2    1    3 1     
    3    1    4 1     
    4    1    5 1     
    5    2    6 ar    
    6    2    7 ar    
    7    3    8 1     
    8    3    9 2     
    9    4   10 1     
   10    4   11 2     
   11    5   12 1     
   12    5   18 1     
   13    5   19 1     
   14    6   13 ar    
   15    6   20 1     
   16    7   14 ar    
   17    7   21 1     
   18    8   15 1     
   19    8   22 1     
   20   10   15 1     
   21   10   23 1     
   22   12   24 1     
   23   12   25 1     
   24   12   26 1     
   25   13   16 ar    
   26   13   27 1     
   27   14   16 ar    
   28   14   28 1     
   29   15   17 2     
   30   16   29 1     
@<TRIPOS>SUBSTRUCTURE
      1 RES1           1
@<TRIPOS>SET
DONOR_HYDROGENS      STATIC     ATOMS    <user>   **** ""
2 22 23
ATOM$RED        STATIC     ATOMS    COLORGROUP SYSTEM
2 22 23
@<TRIPOS>COMMENT
> <Gold.Version>
2022.3.0

> <Gold.Id.Protein>
unknown|3l9n_clean|pdb

> <Gold.Protein.RotatedTorsions>
[ 3656 3649 3648 3646 ] final -155.06 input   60.01 | X-H torsion
[ 3578 3569 3568 3566 ] final   49.91 input   59.99 | X-H torsion
[ 3854 3846 3845 3843 ] final  111.64 input   60.02 | X-H torsion
[ 2581 2570 2569 2568 ] final   74.48 input   60.01 | X-H torsion
[ 3119 3112 3110 3107 ] final   67.69 input   60.01 | X-H torsion
[ 5145 5136 5135 5133 ] final   68.60 input   59.99 | X-H torsion
[ 1922 1917 1916 1913 ] final    6.60 input   59.98 | X-H torsion
[ 3169 3160 3159 3157 ] final   87.14 input   59.99 | X-H torsion
[  630  627  626  623 ] final  -99.24 input   60.00 | X-H torsion

> <Gold.Protein.ActiveResidues>
 LEU49   GLY50   THR51   GLY52   SER53   PHE54   GLY55   LEU82   LYS83   GLN84  
 HIS87   GLY126  GLU127  PHE129  SER130  HIS131  LEU132  ARG133  ARG134  GLY136 
 ARG137  ARG165  ASP166  LEU167  LYS168  PRO169  GLU170  ASN171  MET173  ASP184 
 PHE187  TPO197  LEU198  CYS199  GLY200  THR201  PRO202  GLU203  TYR204  LEU205 
 ILE209  ILE210  VAL226  LEU227  TYR229  GLU230  ALA233  GLY234  TYR235  PRO236 
 PRO237  PHE238  PHE239  ALA240  ASP241  GLN242  PRO243  ILE244  GLN245  ILE246 
 TYR247  LYS249  ARG256  PHE257  PRO258  SER259  ASN326  PHE327  ASP328  ASP329 
 TYR330 

> <Gold.Protein.RotatedAtoms>
   27.5476   25.6296   66.6156 H   0  0  0  0  0  0  0  0  0  0  0  0  # atno 630  bound_to 627 
   41.5654   21.1496   52.5624 H   0  0  0  0  0  0  0  0  0  0  0  0  # atno 1922 bound_to 1917
   28.9038   27.7621   57.1865 H   0  0  0  0  0  0  0  0  0  0  0  0  # atno 2581 bound_to 2570
   29.4082   26.3929   57.9737 H   0  0  0  0  0  0  0  0  0  0  0  0  # atno 2582 bound_to 2570
   30.5232   27.4320   57.3209 H   0  0  0  0  0  0  0  0  0  0  0  0  # atno 2583 bound_to 2570
   27.0335   28.5494   55.7256 H   0  0  0  0  0  0  0  0  0  0  0  0  # atno 3119 bound_to 3112
   32.8212   28.9055   49.0248 H   0  0  0  0  0  0  0  0  0  0  0  0  # atno 3169 bound_to 3160
   36.8646   38.4969   43.1113 H   0  0  0  0  0  0  0  0  0  0  0  0  # atno 3578 bound_to 3569
   40.8368   38.4061   42.9804 H   0  0  0  0  0  0  0  0  0  0  0  0  # atno 3656 bound_to 3649
   25.7401   37.2154   59.1317 H   0  0  0  0  0  0  0  0  0  0  0  0  # atno 3854 bound_to 3846
   38.9769   21.2140   61.1420 H   0  0  0  0  0  0  0  0  0  0  0  0  # atno 5145 bound_to 5136
   40.4425   39.7467   43.8140 LP  0  0  0  0  0  0  0  0  0  0  0  0  # atno 5461 bound_to 3649
   39.2927   38.9187   43.0022 LP  0  0  0  0  0  0  0  0  0  0  0  0  # atno 5462 bound_to 3649
   35.6066   39.1207   43.9336 LP  0  0  0  0  0  0  0  0  0  0  0  0  # atno 5463 bound_to 3569
   35.6569   39.2315   42.3052 LP  0  0  0  0  0  0  0  0  0  0  0  0  # atno 5464 bound_to 3569
   25.2109   36.2507   57.9323 LP  0  0  0  0  0  0  0  0  0  0  0  0  # atno 5513 bound_to 3846
   24.1525   36.8801   59.0048 LP  0  0  0  0  0  0  0  0  0  0  0  0  # atno 5514 bound_to 3846
   27.7148   29.0543   57.1142 LP  0  0  0  0  0  0  0  0  0  0  0  0  # atno 5515 bound_to 3112
   28.6461   28.4489   55.9172 LP  0  0  0  0  0  0  0  0  0  0  0  0  # atno 5516 bound_to 3112
   40.5565   21.4520   60.8329 LP  0  0  0  0  0  0  0  0  0  0  0  0  # atno 5523 bound_to 5136
   39.7013   22.5812   61.6453 LP  0  0  0  0  0  0  0  0  0  0  0  0  # atno 5524 bound_to 5136
   41.2384   20.6332   54.0706 LP  0  0  0  0  0  0  0  0  0  0  0  0  # atno 5533 bound_to 1917
   42.7261   20.4139   53.4340 LP  0  0  0  0  0  0  0  0  0  0  0  0  # atno 5534 bound_to 1917
   33.1195   30.5017   48.9221 LP  0  0  0  0  0  0  0  0  0  0  0  0  # atno 5563 bound_to 3160
   32.3587   29.7300   47.7005 LP  0  0  0  0  0  0  0  0  0  0  0  0  # atno 5564 bound_to 3160
   27.7349   26.7233   67.8061 LP  0  0  0  0  0  0  0  0  0  0  0  0  # atno 5571 bound_to 627 
   27.8432   25.1275   68.1351 LP  0  0  0  0  0  0  0  0  0  0  0  0  # atno 5572 bound_to 627 

> <Gold.Score>
     Fitness  S(hb_ext) S(vdw_ext)  S(hb_int)    S(int)      intcor
     36.03       1.94      25.18       0.00      -0.53      -0.76

> <Gold.Goldscore.Fitness>
36.0342

> <Gold.Goldscore.Internal.Vdw>
-0.7122

> <Gold.Goldscore.Internal.Torsion>
-0.5824

> <Gold.Goldscore.External.Vdw>
25.1843

> <Gold.Goldscore.Internal.HBond>
0.0000

> <Gold.Goldscore.External.HBond>
1.9354

> <Gold.Goldscore.Internal.Correction>
-0.7650

> <Gold.Goldscore.Hbonds>
donor molecule, donor type, donor heavy atom, donor atom, acceptor molecule, acceptor atom, score
      L1  H     8    22       P1  2601  0.97

> <Gold.Goldscore.Internal.Vdw.Weighted>
-0.7122

> <Gold.Goldscore.Internal.Torsion.Weighted>
-0.5824

> <Gold.Goldscore.External.Vdw.Weighted>
34.6285

> <Gold.Goldscore.Internal.HBond.Weighted>
0.0000

> <Gold.Goldscore.External.HBond.Weighted>
1.9354

> <Gold.Goldscore.Internal.Correction.Weighted>
-0.7650

> <Gold.Rescore>
     Score     S(PLP)   S(hbond)     S(cho)   S(metal)  DE(clash)   DE(tors)     intcor
     27.69     -25.17       0.93       0.00       0.00       0.00       0.13       ----

> <Gold.PLP.Fitness>
27.6886

> <Gold.PLP.PLP>
-25.1713

> <Gold.PLP.part.hbond>
-1.5669

> <Gold.PLP.part.metal>
0.0000

> <Gold.PLP.part.buried>
7.2107

> <Gold.PLP.part.nonpolar>
-33.8126

> <Gold.PLP.part.repulsive>
2.6295

> <Gold.PLP.ligand.clash>
0.0000

> <Gold.PLP.ligand.torsion>
0.1307

> <Gold.PLP.Chemscore.Hbond>
0.9263

> <Gold.PLP.Chemscore.CHOScore>
0.0000

> <Gold.PLP.Chemscore.Metal>
0.0000

> <Gold.Chemscore.Hbonds>
donor molecule, donor type, donor heavy atom, donor atom, acceptor molecule, acceptor atom, score
      L1  H     8    22       P1  2601  0.15

> <Gold.PLP.Chemscore.Internal.Correction>
   9.000000E+99

