#       Name:                CT1002167954
#       Creating user name   hitesit
#       Creation time:       Sun Apr 16 22:50:39 2023


#       File generated by GOLD software.
#

@<TRIPOS>MOLECULE
CT1002167954|ligand_prepared|mol2|1|dock3
    29    30     1
SMALL
NO_CHARGES


@<TRIPOS>ATOM
      1 C1          33.1980  20.1308  58.9709 C.3            1 RES1               0.0000
      2 C2          31.8419  19.9306  59.6777 C.ar           1 RES1               0.0000
      3 C3          34.2603  19.5817  59.9186 C.2            1 RES1               0.0000
      4 C4          33.1020  19.3850  57.6445 C.2            1 RES1               0.0000
      5 C5          33.5304  21.6097  58.6644 C.3            1 RES1               0.0000
      6 C6          30.9095  20.9625  59.7274 C.ar           1 RES1               0.0000
      7 C7          31.5085  18.7209  60.2812 C.ar           1 RES1               0.0000
      8 N8          34.8390  18.3895  59.5963 N.am           1 RES1               0.0000
      9 O9          34.5574  20.1662  60.9531 O.2            1 RES1               0.0000
     10 N10         33.9145  18.2972  57.4594 N.am           1 RES1               0.0000
     11 O11         32.3183  19.7195  56.7647 O.2            1 RES1               0.0000
     12 C12         34.9488  21.8279  58.1617 C.3            1 RES1               0.0000
     13 C13         29.6868  20.7905  60.3551 C.ar           1 RES1               0.0000
     14 C14         30.2854  18.5511  60.9086 C.ar           1 RES1               0.0000
     15 C15         34.7567  17.7472  58.3870 C.2            1 RES1               0.0000
     16 C16         29.3738  19.5847  60.9456 C.ar           1 RES1               0.0000
     17 O17         35.4149  16.7351  58.1644 O.2            1 RES1               0.0000
     18 H18         32.8270  21.9804  57.9086 H              1 RES1               0.0000
     19 H19         33.3844  22.2009  59.5769 H              1 RES1               0.0000
     20 H20         31.1391  21.9192  59.2704 H              1 RES1               0.0000
     21 H21         32.2106  17.8942  60.2653 H              1 RES1               0.0000
     22 H22         35.3833  17.9334  60.3216 H              1 RES1               0.0000
     23 H23         33.8893  17.8566  56.5453 H              1 RES1               0.0000
     24 H24         35.1294  22.8820  57.9621 H              1 RES1               0.0000
     25 H25         35.6752  21.4934  58.8994 H              1 RES1               0.0000
     26 H26         35.1211  21.2742  57.2410 H              1 RES1               0.0000
     27 H27         28.9735  21.6075  60.3827 H              1 RES1               0.0000
     28 H28         30.0435  17.6006  61.3726 H              1 RES1               0.0000
     29 H29         28.4158  19.4501  61.4369 H              1 RES1               0.0000
@<TRIPOS>BOND
    1    1    2 1     
    2    1    3 1     
    3    1    4 1     
    4    1    5 1     
    5    2    6 ar    
    6    2    7 ar    
    7    3    8 1     
    8    3    9 2     
    9    4   10 1     
   10    4   11 2     
   11    5   12 1     
   12    5   18 1     
   13    5   19 1     
   14    6   13 ar    
   15    6   20 1     
   16    7   14 ar    
   17    7   21 1     
   18    8   15 1     
   19    8   22 1     
   20   10   15 1     
   21   10   23 1     
   22   12   24 1     
   23   12   25 1     
   24   12   26 1     
   25   13   16 ar    
   26   13   27 1     
   27   14   16 ar    
   28   14   28 1     
   29   15   17 2     
   30   16   29 1     
@<TRIPOS>SUBSTRUCTURE
      1 RES1           1
@<TRIPOS>SET
DONOR_HYDROGENS      STATIC     ATOMS    <user>   **** ""
2 22 23
ATOM$RED        STATIC     ATOMS    COLORGROUP SYSTEM
2 22 23
@<TRIPOS>COMMENT
> <Gold.Version>
2022.3.0

> <Gold.Id.Protein>
unknown|3l9n_clean|pdb

> <Gold.Protein.RotatedTorsions>
[ 3656 3649 3648 3646 ] final   67.45 input   60.01 | X-H torsion
[ 3578 3569 3568 3566 ] final  132.06 input   59.99 | X-H torsion
[ 3854 3846 3845 3843 ] final  -28.51 input   60.02 | X-H torsion
[ 2581 2570 2569 2568 ] final   42.52 input   60.01 | X-H torsion
[ 3119 3112 3110 3107 ] final  125.24 input   60.01 | X-H torsion
[ 5145 5136 5135 5133 ] final   46.42 input   59.99 | X-H torsion
[ 1922 1917 1916 1913 ] final -139.15 input   59.98 | X-H torsion
[ 3169 3160 3159 3157 ] final -105.47 input   59.99 | X-H torsion
[  630  627  626  623 ] final  144.88 input   60.00 | X-H torsion

> <Gold.Protein.ActiveResidues>
 LEU49   GLY50   THR51   GLY52   SER53   PHE54   GLY55   LEU82   LYS83   GLN84  
 HIS87   GLY126  GLU127  PHE129  SER130  HIS131  LEU132  ARG133  ARG134  GLY136 
 ARG137  ARG165  ASP166  LEU167  LYS168  PRO169  GLU170  ASN171  MET173  ASP184 
 PHE187  TPO197  LEU198  CYS199  GLY200  THR201  PRO202  GLU203  TYR204  LEU205 
 ILE209  ILE210  VAL226  LEU227  TYR229  GLU230  ALA233  GLY234  TYR235  PRO236 
 PRO237  PHE238  PHE239  ALA240  ASP241  GLN242  PRO243  ILE244  GLN245  ILE246 
 TYR247  LYS249  ARG256  PHE257  PRO258  SER259  ASN326  PHE327  ASP328  ASP329 
 TYR330 

> <Gold.Protein.RotatedAtoms>
   27.7244   26.7356   67.7402 H   0  0  0  0  0  0  0  0  0  0  0  0  # atno 630  bound_to 627 
   41.5922   20.4616   54.2139 H   0  0  0  0  0  0  0  0  0  0  0  0  # atno 1922 bound_to 1917
   29.3516   27.9938   57.0334 H   0  0  0  0  0  0  0  0  0  0  0  0  # atno 2581 bound_to 2570
   28.9442   26.6154   57.8597 H   0  0  0  0  0  0  0  0  0  0  0  0  # atno 2582 bound_to 2570
   30.5391   26.9779   57.5878 H   0  0  0  0  0  0  0  0  0  0  0  0  # atno 2583 bound_to 2570
   27.8373   28.3195   55.3900 H   0  0  0  0  0  0  0  0  0  0  0  0  # atno 3119 bound_to 3112
   32.6156   30.3999   47.9357 H   0  0  0  0  0  0  0  0  0  0  0  0  # atno 3169 bound_to 3160
   36.1846   38.9486   42.1910 H   0  0  0  0  0  0  0  0  0  0  0  0  # atno 3578 bound_to 3569
   40.1621   39.7960   43.7909 H   0  0  0  0  0  0  0  0  0  0  0  0  # atno 3656 bound_to 3649
   24.8842   36.2220   57.9562 H   0  0  0  0  0  0  0  0  0  0  0  0  # atno 3854 bound_to 3846
   39.2187   21.0090   60.9711 H   0  0  0  0  0  0  0  0  0  0  0  0  # atno 5145 bound_to 5136
   39.4036   38.6903   42.8690 LP  0  0  0  0  0  0  0  0  0  0  0  0  # atno 5461 bound_to 3649
   41.0113   38.5750   43.1307 LP  0  0  0  0  0  0  0  0  0  0  0  0  # atno 5462 bound_to 3649
   36.6798   38.5521   43.6895 LP  0  0  0  0  0  0  0  0  0  0  0  0  # atno 5463 bound_to 3569
   35.2685   39.3453   43.4761 LP  0  0  0  0  0  0  0  0  0  0  0  0  # atno 5464 bound_to 3569
   24.3128   37.0661   59.2250 LP  0  0  0  0  0  0  0  0  0  0  0  0  # atno 5513 bound_to 3846
   25.9122   37.0646   58.8955 LP  0  0  0  0  0  0  0  0  0  0  0  0  # atno 5514 bound_to 3846
   26.9640   28.9301   56.6195 LP  0  0  0  0  0  0  0  0  0  0  0  0  # atno 5515 bound_to 3112
   28.5869   28.8048   56.7501 LP  0  0  0  0  0  0  0  0  0  0  0  0  # atno 5516 bound_to 3112
   40.6556   21.7724   60.9708 LP  0  0  0  0  0  0  0  0  0  0  0  0  # atno 5523 bound_to 5136
   39.3587   22.4671   61.6795 LP  0  0  0  0  0  0  0  0  0  0  0  0  # atno 5524 bound_to 5136
   42.7198   20.5754   53.0461 LP  0  0  0  0  0  0  0  0  0  0  0  0  # atno 5533 bound_to 1917
   41.2177   21.1647   52.7949 LP  0  0  0  0  0  0  0  0  0  0  0  0  # atno 5534 bound_to 1917
   32.4820   28.8332   48.3541 LP  0  0  0  0  0  0  0  0  0  0  0  0  # atno 5563 bound_to 3160
   33.2032   29.8929   49.3657 LP  0  0  0  0  0  0  0  0  0  0  0  0  # atno 5564 bound_to 3160
   27.8507   25.1747   68.1831 LP  0  0  0  0  0  0  0  0  0  0  0  0  # atno 5571 bound_to 627 
   27.5493   25.5625   66.6258 LP  0  0  0  0  0  0  0  0  0  0  0  0  # atno 5572 bound_to 627 

> <Gold.Score>
     Fitness  S(hb_ext) S(vdw_ext)  S(hb_int)    S(int)      intcor
     31.98       0.00      23.75       0.00      -0.67      -0.76

> <Gold.Goldscore.Fitness>
31.9848

> <Gold.Goldscore.Internal.Vdw>
-0.9420

> <Gold.Goldscore.Internal.Torsion>
-0.4925

> <Gold.Goldscore.External.Vdw>
23.7486

> <Gold.Goldscore.Internal.HBond>
0.0000

> <Gold.Goldscore.External.HBond>
0.0000

> <Gold.Goldscore.Internal.Correction>
-0.7650

> <Gold.Goldscore.Internal.Vdw.Weighted>
-0.9420

> <Gold.Goldscore.Internal.Torsion.Weighted>
-0.4925

> <Gold.Goldscore.External.Vdw.Weighted>
32.6544

> <Gold.Goldscore.Internal.HBond.Weighted>
0.0000

> <Gold.Goldscore.External.HBond.Weighted>
0.0000

> <Gold.Goldscore.Internal.Correction.Weighted>
-0.7650

> <Gold.Rescore>
     Score     S(PLP)   S(hbond)     S(cho)   S(metal)  DE(clash)   DE(tors)     intcor
     28.42     -28.57       0.00       0.00       0.00       0.00       0.08       ----

> <Gold.PLP.Fitness>
28.4153

> <Gold.PLP.PLP>
-28.5681

> <Gold.PLP.part.hbond>
-0.4912

> <Gold.PLP.part.metal>
0.0000

> <Gold.PLP.part.buried>
2.7643

> <Gold.PLP.part.nonpolar>
-31.6861

> <Gold.PLP.part.repulsive>
0.2260

> <Gold.PLP.ligand.clash>
0.0000

> <Gold.PLP.ligand.torsion>
0.0764

> <Gold.PLP.Chemscore.Hbond>
0.0000

> <Gold.PLP.Chemscore.CHOScore>
0.0000

> <Gold.PLP.Chemscore.Metal>
0.0000

> <Gold.PLP.Chemscore.Internal.Correction>
   9.000000E+99

