#       Name:                CT1002167954
#       Creating user name   hitesit
#       Creation time:       Sun Apr 16 22:50:38 2023


#       File generated by GOLD software.
#

@<TRIPOS>MOLECULE
CT1002167954|ligand_prepared|mol2|1|dock2
    29    30     1
SMALL
NO_CHARGES


@<TRIPOS>ATOM
      1 C1          31.6272  19.0065  59.0619 C.3            1 RES1               0.0000
      2 C2          30.5919  20.0178  59.5952 C.ar           1 RES1               0.0000
      3 C3          32.2050  19.6163  57.7882 C.2            1 RES1               0.0000
      4 C4          32.6482  18.8128  60.1776 C.2            1 RES1               0.0000
      5 C5          31.0287  17.6230  58.7165 C.3            1 RES1               0.0000
      6 C6          30.8832  21.3782  59.6303 C.ar           1 RES1               0.0000
      7 C7          29.3426  19.6064  60.0520 C.ar           1 RES1               0.0000
      8 N8          33.4720  20.1177  57.8461 N.am           1 RES1               0.0000
      9 O9          31.5447  19.6918  56.7593 O.2            1 RES1               0.0000
     10 N10         33.9311  19.2399  59.9552 N.am           1 RES1               0.0000
     11 O11         32.3493  18.3093  61.2535 O.2            1 RES1               0.0000
     12 C12         32.0054  16.6892  58.0192 C.3            1 RES1               0.0000
     13 C13         29.9581  22.2945  60.1023 C.ar           1 RES1               0.0000
     14 C14         28.4190  20.5245  60.5238 C.ar           1 RES1               0.0000
     15 C15         34.3820  19.9114  58.8516 C.2            1 RES1               0.0000
     16 C16         28.7254  21.8684  60.5489 C.ar           1 RES1               0.0000
     17 O17         35.5379  20.3117  58.7479 O.2            1 RES1               0.0000
     18 H18         30.6841  17.1462  59.6424 H              1 RES1               0.0000
     19 H19         30.1552  17.7679  58.0689 H              1 RES1               0.0000
     20 H20         31.8491  21.7319  59.2853 H              1 RES1               0.0000
     21 H21         29.0802  18.5540  60.0426 H              1 RES1               0.0000
     22 H22         33.7704  20.6999  57.0700 H              1 RES1               0.0000
     23 H23         34.6132  19.0385  60.6795 H              1 RES1               0.0000
     24 H24         31.5350  15.7331  57.7996 H              1 RES1               0.0000
     25 H25         32.3494  17.1210  57.0816 H              1 RES1               0.0000
     26 H26         32.8752  16.5030  58.6459 H              1 RES1               0.0000
     27 H27         30.2046  23.3510  60.1212 H              1 RES1               0.0000
     28 H28         27.4503  20.1846  60.8749 H              1 RES1               0.0000
     29 H29         28.0007  22.5865  60.9182 H              1 RES1               0.0000
@<TRIPOS>BOND
    1    1    2 1     
    2    1    3 1     
    3    1    4 1     
    4    1    5 1     
    5    2    6 ar    
    6    2    7 ar    
    7    3    8 1     
    8    3    9 2     
    9    4   10 1     
   10    4   11 2     
   11    5   12 1     
   12    5   18 1     
   13    5   19 1     
   14    6   13 ar    
   15    6   20 1     
   16    7   14 ar    
   17    7   21 1     
   18    8   15 1     
   19    8   22 1     
   20   10   15 1     
   21   10   23 1     
   22   12   24 1     
   23   12   25 1     
   24   12   26 1     
   25   13   16 ar    
   26   13   27 1     
   27   14   16 ar    
   28   14   28 1     
   29   15   17 2     
   30   16   29 1     
@<TRIPOS>SUBSTRUCTURE
      1 RES1           1
@<TRIPOS>SET
DONOR_HYDROGENS      STATIC     ATOMS    <user>   **** ""
2 22 23
ATOM$RED        STATIC     ATOMS    COLORGROUP SYSTEM
2 22 23
@<TRIPOS>COMMENT
> <Gold.Version>
2022.3.0

> <Gold.Id.Protein>
unknown|3l9n_clean|pdb

> <Gold.Protein.RotatedTorsions>
[ 3656 3649 3648 3646 ] final   94.87 input   60.01 | X-H torsion
[ 3578 3569 3568 3566 ] final   32.12 input   59.99 | X-H torsion
[ 3854 3846 3845 3843 ] final  -76.15 input   60.02 | X-H torsion
[ 2581 2570 2569 2568 ] final  -56.82 input   60.01 | X-H torsion
[ 3119 3112 3110 3107 ] final  -47.10 input   60.01 | X-H torsion
[ 5145 5136 5135 5133 ] final   84.98 input   59.99 | X-H torsion
[ 1922 1917 1916 1913 ] final   47.54 input   59.98 | X-H torsion
[ 3169 3160 3159 3157 ] final  101.74 input   59.99 | X-H torsion
[  630  627  626  623 ] final   73.37 input   60.00 | X-H torsion

> <Gold.Protein.ActiveResidues>
 LEU49   GLY50   THR51   GLY52   SER53   PHE54   GLY55   LEU82   LYS83   GLN84  
 HIS87   GLY126  GLU127  PHE129  SER130  HIS131  LEU132  ARG133  ARG134  GLY136 
 ARG137  ARG165  ASP166  LEU167  LYS168  PRO169  GLU170  ASN171  MET173  ASP184 
 PHE187  TPO197  LEU198  CYS199  GLY200  THR201  PRO202  GLU203  TYR204  LEU205 
 ILE209  ILE210  VAL226  LEU227  TYR229  GLU230  ALA233  GLY234  TYR235  PRO236 
 PRO237  PHE238  PHE239  ALA240  ASP241  GLN242  PRO243  ILE244  GLN245  ILE246 
 TYR247  LYS249  ARG256  PHE257  PRO258  SER259  ASN326  PHE327  ASP328  ASP329 
 TYR330 

> <Gold.Protein.RotatedAtoms>
   27.8781   25.9038   68.4344 H   0  0  0  0  0  0  0  0  0  0  0  0  # atno 630  bound_to 627 
   42.1922   20.9656   52.5170 H   0  0  0  0  0  0  0  0  0  0  0  0  # atno 1922 bound_to 1917
   30.5625   27.2730   57.4132 H   0  0  0  0  0  0  0  0  0  0  0  0  # atno 2581 bound_to 2570
   29.0437   27.8686   57.1179 H   0  0  0  0  0  0  0  0  0  0  0  0  # atno 2582 bound_to 2570
   29.2290   26.4462   57.9495 H   0  0  0  0  0  0  0  0  0  0  0  0  # atno 2583 bound_to 2570
   27.6316   29.0568   57.0934 H   0  0  0  0  0  0  0  0  0  0  0  0  # atno 3119 bound_to 3112
   32.7094   28.8200   48.8329 H   0  0  0  0  0  0  0  0  0  0  0  0  # atno 3169 bound_to 3160
   36.8165   38.4991   43.3969 H   0  0  0  0  0  0  0  0  0  0  0  0  # atno 3578 bound_to 3569
   40.5899   39.6785   43.8010 H   0  0  0  0  0  0  0  0  0  0  0  0  # atno 3656 bound_to 3649
   24.2558   36.4061   58.3351 H   0  0  0  0  0  0  0  0  0  0  0  0  # atno 3854 bound_to 3846
   38.8698   21.4182   61.2761 H   0  0  0  0  0  0  0  0  0  0  0  0  # atno 5145 bound_to 5136
   39.2664   39.0541   43.0895 LP  0  0  0  0  0  0  0  0  0  0  0  0  # atno 5461 bound_to 3649
   40.7176   38.3296   42.9001 LP  0  0  0  0  0  0  0  0  0  0  0  0  # atno 5462 bound_to 3649
   35.4132   39.2423   43.7523 LP  0  0  0  0  0  0  0  0  0  0  0  0  # atno 5463 bound_to 3569
   35.8987   39.1078   42.1990 LP  0  0  0  0  0  0  0  0  0  0  0  0  # atno 5464 bound_to 3569
   24.9877   37.3355   59.4531 LP  0  0  0  0  0  0  0  0  0  0  0  0  # atno 5513 bound_to 3846
   25.8698   36.6100   58.2860 LP  0  0  0  0  0  0  0  0  0  0  0  0  # atno 5514 bound_to 3846
   28.6785   28.4764   55.9914 LP  0  0  0  0  0  0  0  0  0  0  0  0  # atno 5515 bound_to 3112
   27.0796   28.5155   55.6617 LP  0  0  0  0  0  0  0  0  0  0  0  0  # atno 5516 bound_to 3112
   40.4045   21.2410   60.7656 LP  0  0  0  0  0  0  0  0  0  0  0  0  # atno 5523 bound_to 5136
   39.9612   22.5866   61.5777 LP  0  0  0  0  0  0  0  0  0  0  0  0  # atno 5524 bound_to 5136
   40.9461   20.9365   53.5632 LP  0  0  0  0  0  0  0  0  0  0  0  0  # atno 5533 bound_to 1917
   42.3871   20.2960   53.9873 LP  0  0  0  0  0  0  0  0  0  0  0  0  # atno 5534 bound_to 1917
   33.1758   30.3552   49.1032 LP  0  0  0  0  0  0  0  0  0  0  0  0  # atno 5563 bound_to 3160
   32.4150   29.9627   47.7127 LP  0  0  0  0  0  0  0  0  0  0  0  0  # atno 5564 bound_to 3160
   27.6581   24.9740   67.1169 LP  0  0  0  0  0  0  0  0  0  0  0  0  # atno 5571 bound_to 627 
   27.5870   26.6008   66.9929 LP  0  0  0  0  0  0  0  0  0  0  0  0  # atno 5572 bound_to 627 

> <Gold.Score>
     Fitness  S(hb_ext) S(vdw_ext)  S(hb_int)    S(int)      intcor
     34.03       1.96      23.42       0.00      -0.12      -0.76

> <Gold.Goldscore.Fitness>
34.0348

> <Gold.Goldscore.Internal.Vdw>
-0.4228

> <Gold.Goldscore.Internal.Torsion>
-0.4653

> <Gold.Goldscore.External.Vdw>
23.4180

> <Gold.Goldscore.Internal.HBond>
0.0000

> <Gold.Goldscore.External.HBond>
1.9582

> <Gold.Goldscore.Internal.Correction>
-0.7650

> <Gold.Goldscore.Hbonds>
donor molecule, donor type, donor heavy atom, donor atom, acceptor molecule, acceptor atom, score
      L1  H     8    22       P1  2601  0.98

> <Gold.Goldscore.Internal.Vdw.Weighted>
-0.4228

> <Gold.Goldscore.Internal.Torsion.Weighted>
-0.4653

> <Gold.Goldscore.External.Vdw.Weighted>
32.1998

> <Gold.Goldscore.Internal.HBond.Weighted>
0.0000

> <Gold.Goldscore.External.HBond.Weighted>
1.9582

> <Gold.Goldscore.Internal.Correction.Weighted>
-0.7650

> <Gold.Rescore>
     Score     S(PLP)   S(hbond)     S(cho)   S(metal)  DE(clash)   DE(tors)     intcor
     19.95     -20.06       0.00       0.00       0.00       0.00       0.06       ----

> <Gold.PLP.Fitness>
19.9511

> <Gold.PLP.PLP>
-20.0615

> <Gold.PLP.part.hbond>
-0.3454

> <Gold.PLP.part.metal>
0.0000

> <Gold.PLP.part.buried>
9.6120

> <Gold.PLP.part.nonpolar>
-30.6863

> <Gold.PLP.part.repulsive>
0.8418

> <Gold.PLP.ligand.clash>
0.0000

> <Gold.PLP.ligand.torsion>
0.0552

> <Gold.PLP.Chemscore.Hbond>
0.0000

> <Gold.PLP.Chemscore.CHOScore>
0.0000

> <Gold.PLP.Chemscore.Metal>
0.0000

> <Gold.Chemscore.Hbonds>
donor molecule, donor type, donor heavy atom, donor atom, acceptor molecule, acceptor atom, score
      L1  H     8    22       P1  2601  0.78

> <Gold.PLP.Chemscore.Internal.Correction>
   9.000000E+99

