#       Name:                CT1002167954
#       Creating user name   hitesit
#       Creation time:       Sun Apr 16 22:50:36 2023


#       File generated by GOLD software.
#

@<TRIPOS>MOLECULE
CT1002167954|ligand_prepared|mol2|1|dock1
    29    30     1
SMALL
NO_CHARGES


@<TRIPOS>ATOM
      1 C1          32.7847  19.4293  58.7201 C.3            1 RES1               0.0000
      2 C2          31.3992  19.4597  59.3971 C.ar           1 RES1               0.0000
      3 C3          33.7771  18.9947  59.7946 C.2            1 RES1               0.0000
      4 C4          32.6674  18.4568  57.5517 C.2            1 RES1               0.0000
      5 C5          33.2361  20.7979  58.1591 C.3            1 RES1               0.0000
      6 C6          30.5890  18.3281  59.4042 C.ar           1 RES1               0.0000
      7 C7          30.9195  20.6090  60.0197 C.ar           1 RES1               0.0000
      8 N8          34.2721  17.7260  59.7216 N.am           1 RES1               0.0000
      9 O9          34.0903  19.7405  60.7144 O.2            1 RES1               0.0000
     10 N10         33.3997  17.2997  57.6034 N.am           1 RES1               0.0000
     11 O11         31.9346  18.6743  56.5946 O.2            1 RES1               0.0000
     12 C12         34.4867  20.7249  57.2973 C.3            1 RES1               0.0000
     13 C13         29.3457  18.3440  60.0142 C.ar           1 RES1               0.0000
     14 C14         29.6757  20.6227  60.6290 C.ar           1 RES1               0.0000
     15 C15         34.1731  16.8760  58.6496 C.2            1 RES1               0.0000
     16 C16         28.8884  19.4910  60.6274 C.ar           1 RES1               0.0000
     17 O17         34.7583  15.7968  58.6443 O.2            1 RES1               0.0000
     18 H18         32.4195  21.2212  57.5614 H              1 RES1               0.0000
     19 H19         33.4250  21.4786  58.9984 H              1 RES1               0.0000
     20 H20         30.9310  17.4171  58.9246 H              1 RES1               0.0000
     21 H21         31.5213  21.5114  60.0325 H              1 RES1               0.0000
     22 H22         34.7609  17.3770  60.5398 H              1 RES1               0.0000
     23 H23         33.3652  16.6987  56.7861 H              1 RES1               0.0000
     24 H24         34.7598  21.7117  56.9295 H              1 RES1               0.0000
     25 H25         35.3258  20.3316  57.8675 H              1 RES1               0.0000
     26 H26         34.3262  20.0757  56.4390 H              1 RES1               0.0000
     27 H27         28.7293  17.4511  60.0090 H              1 RES1               0.0000
     28 H28         29.3196  21.5278  61.1098 H              1 RES1               0.0000
     29 H29         27.9145  19.5030  61.1055 H              1 RES1               0.0000
@<TRIPOS>BOND
    1    1    2 1     
    2    1    3 1     
    3    1    4 1     
    4    1    5 1     
    5    2    6 ar    
    6    2    7 ar    
    7    3    8 1     
    8    3    9 2     
    9    4   10 1     
   10    4   11 2     
   11    5   12 1     
   12    5   18 1     
   13    5   19 1     
   14    6   13 ar    
   15    6   20 1     
   16    7   14 ar    
   17    7   21 1     
   18    8   15 1     
   19    8   22 1     
   20   10   15 1     
   21   10   23 1     
   22   12   24 1     
   23   12   25 1     
   24   12   26 1     
   25   13   16 ar    
   26   13   27 1     
   27   14   16 ar    
   28   14   28 1     
   29   15   17 2     
   30   16   29 1     
@<TRIPOS>SUBSTRUCTURE
      1 RES1           1
@<TRIPOS>SET
DONOR_HYDROGENS      STATIC     ATOMS    <user>   **** ""
2 22 23
ATOM$RED        STATIC     ATOMS    COLORGROUP SYSTEM
2 22 23
@<TRIPOS>COMMENT
> <Gold.Version>
2022.3.0

> <Gold.Id.Protein>
unknown|3l9n_clean|pdb

> <Gold.Protein.RotatedTorsions>
[ 3656 3649 3648 3646 ] final  179.95 input   60.01 | X-H torsion
[ 3578 3569 3568 3566 ] final -100.39 input   59.99 | X-H torsion
[ 3854 3846 3845 3843 ] final   83.83 input   60.02 | X-H torsion
[ 2581 2570 2569 2568 ] final   14.53 input   60.01 | X-H torsion
[ 3119 3112 3110 3107 ] final  121.73 input   60.01 | X-H torsion
[ 5145 5136 5135 5133 ] final   73.56 input   59.99 | X-H torsion
[ 1922 1917 1916 1913 ] final   51.49 input   59.98 | X-H torsion
[ 3169 3160 3159 3157 ] final  140.06 input   59.99 | X-H torsion
[  630  627  626  623 ] final  101.48 input   60.00 | X-H torsion

> <Gold.Protein.ActiveResidues>
 LEU49   GLY50   THR51   GLY52   SER53   PHE54   GLY55   LEU82   LYS83   GLN84  
 HIS87   GLY126  GLU127  PHE129  SER130  HIS131  LEU132  ARG133  ARG134  GLY136 
 ARG137  ARG165  ASP166  LEU167  LYS168  PRO169  GLU170  ASN171  MET173  ASP184 
 PHE187  TPO197  LEU198  CYS199  GLY200  THR201  PRO202  GLU203  TYR204  LEU205 
 ILE209  ILE210  VAL226  LEU227  TYR229  GLU230  ALA233  GLY234  TYR235  PRO236 
 PRO237  PHE238  PHE239  ALA240  ASP241  GLN242  PRO243  ILE244  GLN245  ILE246 
 TYR247  LYS249  ARG256  PHE257  PRO258  SER259  ASN326  PHE327  ASP328  ASP329 
 TYR330 

> <Gold.Protein.RotatedAtoms>
   27.8391   26.3342   68.2926 H   0  0  0  0  0  0  0  0  0  0  0  0  # atno 630  bound_to 627 
   42.2483   20.9397   52.5357 H   0  0  0  0  0  0  0  0  0  0  0  0  # atno 1922 bound_to 1917
   29.8142   27.9987   57.0134 H   0  0  0  0  0  0  0  0  0  0  0  0  # atno 2581 bound_to 2570
   28.7006   26.9586   57.6666 H   0  0  0  0  0  0  0  0  0  0  0  0  # atno 2582 bound_to 2570
   30.3201   26.6300   57.8008 H   0  0  0  0  0  0  0  0  0  0  0  0  # atno 2583 bound_to 2570
   27.7804   28.3245   55.3871 H   0  0  0  0  0  0  0  0  0  0  0  0  # atno 3119 bound_to 3112
   32.4511   28.8724   48.2781 H   0  0  0  0  0  0  0  0  0  0  0  0  # atno 3169 bound_to 3160
   35.3166   39.3069   43.5838 H   0  0  0  0  0  0  0  0  0  0  0  0  # atno 3578 bound_to 3569
   41.0549   38.6642   43.2037 H   0  0  0  0  0  0  0  0  0  0  0  0  # atno 3656 bound_to 3649
   25.9420   36.9971   58.7937 H   0  0  0  0  0  0  0  0  0  0  0  0  # atno 3854 bound_to 3846
   38.9374   21.2719   61.1825 H   0  0  0  0  0  0  0  0  0  0  0  0  # atno 5145 bound_to 5136
   40.0412   39.8048   43.7688 LP  0  0  0  0  0  0  0  0  0  0  0  0  # atno 5461 bound_to 3649
   39.4743   38.6007   42.8225 LP  0  0  0  0  0  0  0  0  0  0  0  0  # atno 5462 bound_to 3649
   36.0784   39.0110   42.1766 LP  0  0  0  0  0  0  0  0  0  0  0  0  # atno 5463 bound_to 3569
   36.7440   38.5256   43.5865 LP  0  0  0  0  0  0  0  0  0  0  0  0  # atno 5464 bound_to 3569
   24.7617   36.2216   57.9846 LP  0  0  0  0  0  0  0  0  0  0  0  0  # atno 5513 bound_to 3846
   24.3984   37.1289   59.2928 LP  0  0  0  0  0  0  0  0  0  0  0  0  # atno 5514 bound_to 3846
   26.9920   28.9469   56.6670 LP  0  0  0  0  0  0  0  0  0  0  0  0  # atno 5515 bound_to 3112
   28.6162   28.7829   56.7056 LP  0  0  0  0  0  0  0  0  0  0  0  0  # atno 5516 bound_to 3112
   40.5170   21.3847   60.8090 LP  0  0  0  0  0  0  0  0  0  0  0  0  # atno 5523 bound_to 5136
   39.7806   22.5901   61.6284 LP  0  0  0  0  0  0  0  0  0  0  0  0  # atno 5524 bound_to 5136
   40.9406   20.9627   53.5039 LP  0  0  0  0  0  0  0  0  0  0  0  0  # atno 5533 bound_to 1917
   42.3361   20.2958   54.0277 LP  0  0  0  0  0  0  0  0  0  0  0  0  # atno 5534 bound_to 1917
   33.1938   29.8048   49.3855 LP  0  0  0  0  0  0  0  0  0  0  0  0  # atno 5563 bound_to 3160
   32.6573   30.4603   47.9894 LP  0  0  0  0  0  0  0  0  0  0  0  0  # atno 5564 bound_to 3160
   27.7429   24.8851   67.5581 LP  0  0  0  0  0  0  0  0  0  0  0  0  # atno 5571 bound_to 627 
   27.5416   26.2563   66.6945 LP  0  0  0  0  0  0  0  0  0  0  0  0  # atno 5572 bound_to 627 

> <Gold.Score>
     Fitness  S(hb_ext) S(vdw_ext)  S(hb_int)    S(int)      intcor
     34.47       0.00      25.43       0.00      -0.49      -0.76

> <Gold.Goldscore.Fitness>
34.4717

> <Gold.Goldscore.Internal.Vdw>
-0.7464

> <Gold.Goldscore.Internal.Torsion>
-0.5070

> <Gold.Goldscore.External.Vdw>
25.4255

> <Gold.Goldscore.Internal.HBond>
0.0000

> <Gold.Goldscore.External.HBond>
0.0000

> <Gold.Goldscore.Internal.Correction>
-0.7650

> <Gold.Goldscore.Internal.Vdw.Weighted>
-0.7464

> <Gold.Goldscore.Internal.Torsion.Weighted>
-0.5070

> <Gold.Goldscore.External.Vdw.Weighted>
34.9601

> <Gold.Goldscore.Internal.HBond.Weighted>
0.0000

> <Gold.Goldscore.External.HBond.Weighted>
0.0000

> <Gold.Goldscore.Internal.Correction.Weighted>
-0.7650

> <Gold.Rescore>
     Score     S(PLP)   S(hbond)     S(cho)   S(metal)  DE(clash)   DE(tors)     intcor
     25.47     -27.73       0.00       0.00       0.00       0.00       1.13       ----

> <Gold.PLP.Fitness>
25.4669

> <Gold.PLP.PLP>
-27.7319

> <Gold.PLP.part.hbond>
-0.9527

> <Gold.PLP.part.metal>
0.0000

> <Gold.PLP.part.buried>
6.9409

> <Gold.PLP.part.nonpolar>
-33.5358

> <Gold.PLP.part.repulsive>
0.1519

> <Gold.PLP.ligand.clash>
0.0000

> <Gold.PLP.ligand.torsion>
1.1325

> <Gold.PLP.Chemscore.Hbond>
0.0000

> <Gold.PLP.Chemscore.CHOScore>
0.0000

> <Gold.PLP.Chemscore.Metal>
0.0000

> <Gold.PLP.Chemscore.Internal.Correction>
   9.000000E+99

