#       Name:                CT1002167954
#       Creating user name   hitesit
#       Creation time:       Sun Apr 16 22:50:47 2023


#       File generated by GOLD software.
#

@<TRIPOS>MOLECULE
CT1002167954|ligand_prepared|mol2|1|dock10
    29    30     1
SMALL
NO_CHARGES


@<TRIPOS>ATOM
      1 C1          31.7041  18.6123  58.4996 C.3            1 RES1               0.0000
      2 C2          30.7751  17.4010  58.2792 C.ar           1 RES1               0.0000
      3 C3          31.4699  19.5520  57.3205 C.2            1 RES1               0.0000
      4 C4          31.3208  19.2033  59.8518 C.2            1 RES1               0.0000
      5 C5          33.2062  18.2475  58.5462 C.3            1 RES1               0.0000
      6 C6          29.4118  17.4965  58.5416 C.ar           1 RES1               0.0000
      7 C7          31.2656  16.1845  57.8121 C.ar           1 RES1               0.0000
      8 N8          30.7599  20.6930  57.5531 N.am           1 RES1               0.0000
      9 O9          31.8681  19.2770  56.1953 O.2            1 RES1               0.0000
     10 N10         30.7717  20.4587  59.8715 N.am           1 RES1               0.0000
     11 O11         31.4740  18.5866  60.8990 O.2            1 RES1               0.0000
     12 C12         34.1075  19.4091  58.9340 C.3            1 RES1               0.0000
     13 C13         28.5687  16.4160  58.3416 C.ar           1 RES1               0.0000
     14 C14         30.4208  15.1051  57.6130 C.ar           1 RES1               0.0000
     15 C15         30.4455  21.2179  58.7809 C.2            1 RES1               0.0000
     16 C16         29.0724  15.2199  57.8768 C.ar           1 RES1               0.0000
     17 O17         29.9037  22.3152  58.8775 O.2            1 RES1               0.0000
     18 H18         33.3496  17.4332  59.2672 H              1 RES1               0.0000
     19 H19         33.5107  17.8786  57.5590 H              1 RES1               0.0000
     20 H20         28.9977  18.4291  58.9103 H              1 RES1               0.0000
     21 H21         32.3231  16.0709  57.5989 H              1 RES1               0.0000
     22 H22         30.4324  21.2030  56.7390 H              1 RES1               0.0000
     23 H23         30.5892  20.8649  60.7837 H              1 RES1               0.0000
     24 H24         35.1502  19.0990  58.9515 H              1 RES1               0.0000
     25 H25         34.0092  20.2274  58.2238 H              1 RES1               0.0000
     26 H26         33.8490  19.7847  59.9219 H              1 RES1               0.0000
     27 H27         27.5086  16.5111  58.5520 H              1 RES1               0.0000
     28 H28         30.8217  14.1654  57.2476 H              1 RES1               0.0000
     29 H29         28.4117  14.3737  57.7198 H              1 RES1               0.0000
@<TRIPOS>BOND
    1    1    2 1     
    2    1    3 1     
    3    1    4 1     
    4    1    5 1     
    5    2    6 ar    
    6    2    7 ar    
    7    3    8 1     
    8    3    9 2     
    9    4   10 1     
   10    4   11 2     
   11    5   12 1     
   12    5   18 1     
   13    5   19 1     
   14    6   13 ar    
   15    6   20 1     
   16    7   14 ar    
   17    7   21 1     
   18    8   15 1     
   19    8   22 1     
   20   10   15 1     
   21   10   23 1     
   22   12   24 1     
   23   12   25 1     
   24   12   26 1     
   25   13   16 ar    
   26   13   27 1     
   27   14   16 ar    
   28   14   28 1     
   29   15   17 2     
   30   16   29 1     
@<TRIPOS>SUBSTRUCTURE
      1 RES1           1
@<TRIPOS>SET
DONOR_HYDROGENS      STATIC     ATOMS    <user>   **** ""
2 22 23
ATOM$RED        STATIC     ATOMS    COLORGROUP SYSTEM
2 22 23
@<TRIPOS>COMMENT
> <Gold.Version>
2022.3.0

> <Gold.Id.Protein>
unknown|3l9n_clean|pdb

> <Gold.Protein.RotatedTorsions>
[ 3656 3649 3648 3646 ] final -169.82 input   60.01 | X-H torsion
[ 3578 3569 3568 3566 ] final  -86.10 input   59.99 | X-H torsion
[ 3854 3846 3845 3843 ] final  171.85 input   60.02 | X-H torsion
[ 2581 2570 2569 2568 ] final   86.21 input   60.01 | X-H torsion
[ 3119 3112 3110 3107 ] final  113.21 input   60.01 | X-H torsion
[ 5145 5136 5135 5133 ] final   10.25 input   59.99 | X-H torsion
[ 1922 1917 1916 1913 ] final   -5.12 input   59.98 | X-H torsion
[ 3169 3160 3159 3157 ] final    1.82 input   59.99 | X-H torsion
[  630  627  626  623 ] final  158.93 input   60.00 | X-H torsion

> <Gold.Protein.ActiveResidues>
 LEU49   GLY50   THR51   GLY52   SER53   PHE54   GLY55   LEU82   LYS83   GLN84  
 HIS87   GLY126  GLU127  PHE129  SER130  HIS131  LEU132  ARG133  ARG134  GLY136 
 ARG137  ARG165  ASP166  LEU167  LYS168  PRO169  GLU170  ASN171  MET173  ASP184 
 PHE187  TPO197  LEU198  CYS199  GLY200  THR201  PRO202  GLU203  TYR204  LEU205 
 ILE209  ILE210  VAL226  LEU227  TYR229  GLU230  ALA233  GLY234  TYR235  PRO236 
 PRO237  PHE238  PHE239  ALA240  ASP241  GLN242  PRO243  ILE244  GLN245  ILE246 
 TYR247  LYS249  ARG256  PHE257  PRO258  SER259  ASN326  PHE327  ASP328  ASP329 
 TYR330 

> <Gold.Protein.RotatedAtoms>
   27.6820   26.7624   67.5167 H   0  0  0  0  0  0  0  0  0  0  0  0  # atno 630  bound_to 627 
   41.3980   21.1665   52.6531 H   0  0  0  0  0  0  0  0  0  0  0  0  # atno 1922 bound_to 1917
   28.7877   27.6282   57.2697 H   0  0  0  0  0  0  0  0  0  0  0  0  # atno 2581 bound_to 2570
   29.6026   26.3709   57.9794 H   0  0  0  0  0  0  0  0  0  0  0  0  # atno 2582 bound_to 2570
   30.4449   27.5878   57.2320 H   0  0  0  0  0  0  0  0  0  0  0  0  # atno 2583 bound_to 2570
   27.6425   28.3425   55.3933 H   0  0  0  0  0  0  0  0  0  0  0  0  # atno 3119 bound_to 3112
   33.2045   30.0858   49.2874 H   0  0  0  0  0  0  0  0  0  0  0  0  # atno 3169 bound_to 3160
   35.4333   39.2271   43.7688 H   0  0  0  0  0  0  0  0  0  0  0  0  # atno 3578 bound_to 3569
   40.9835   38.5474   43.1084 H   0  0  0  0  0  0  0  0  0  0  0  0  # atno 3656 bound_to 3649
   24.8589   37.3117   59.4431 H   0  0  0  0  0  0  0  0  0  0  0  0  # atno 3854 bound_to 3846
   39.7587   20.9162   60.7771 H   0  0  0  0  0  0  0  0  0  0  0  0  # atno 5145 bound_to 5136
   40.2064   39.7987   43.7996 LP  0  0  0  0  0  0  0  0  0  0  0  0  # atno 5461 bound_to 3649
   39.3811   38.7245   42.8877 LP  0  0  0  0  0  0  0  0  0  0  0  0  # atno 5462 bound_to 3649
   35.8734   39.1211   42.2058 LP  0  0  0  0  0  0  0  0  0  0  0  0  # atno 5463 bound_to 3569
   36.8315   38.4959   43.3710 LP  0  0  0  0  0  0  0  0  0  0  0  0  # atno 5464 bound_to 3569
   25.9209   36.6867   58.3799 LP  0  0  0  0  0  0  0  0  0  0  0  0  # atno 5513 bound_to 3846
   24.3295   36.3471   58.2438 LP  0  0  0  0  0  0  0  0  0  0  0  0  # atno 5514 bound_to 3846
   27.0724   28.9836   56.7757 LP  0  0  0  0  0  0  0  0  0  0  0  0  # atno 5515 bound_to 3112
   28.6746   28.7282   56.5905 LP  0  0  0  0  0  0  0  0  0  0  0  0  # atno 5516 bound_to 3112
   40.5289   22.2660   61.2590 LP  0  0  0  0  0  0  0  0  0  0  0  0  # atno 5523 bound_to 5136
   38.9416   22.0670   61.5868 LP  0  0  0  0  0  0  0  0  0  0  0  0  # atno 5524 bound_to 5136
   41.3875   20.5488   54.1586 LP  0  0  0  0  0  0  0  0  0  0  0  0  # atno 5533 bound_to 1917
   42.7458   20.4812   53.2547 LP  0  0  0  0  0  0  0  0  0  0  0  0  # atno 5534 bound_to 1917
   32.5285   30.2529   47.8169 LP  0  0  0  0  0  0  0  0  0  0  0  0  # atno 5563 bound_to 3160
   32.5635   28.7897   48.5412 LP  0  0  0  0  0  0  0  0  0  0  0  0  # atno 5564 bound_to 3160
   27.8707   25.3594   68.3196 LP  0  0  0  0  0  0  0  0  0  0  0  0  # atno 5571 bound_to 627 
   27.5720   25.3508   66.7142 LP  0  0  0  0  0  0  0  0  0  0  0  0  # atno 5572 bound_to 627 

> <Gold.Score>
     Fitness  S(hb_ext) S(vdw_ext)  S(hb_int)    S(int)      intcor
     35.64       0.67      25.49       0.00      -0.07      -0.76

> <Gold.Goldscore.Fitness>
35.6412

> <Gold.Goldscore.Internal.Vdw>
-0.3815

> <Gold.Goldscore.Internal.Torsion>
-0.4473

> <Gold.Goldscore.External.Vdw>
25.4897

> <Gold.Goldscore.Internal.HBond>
0.0000

> <Gold.Goldscore.External.HBond>
0.6666

> <Gold.Goldscore.Internal.Correction>
-0.7551

> <Gold.Goldscore.Hbonds>
donor molecule, donor type, donor heavy atom, donor atom, acceptor molecule, acceptor atom, score
      L1  H     8    22       P1  2620  0.33

> <Gold.Goldscore.Internal.Vdw.Weighted>
-0.3815

> <Gold.Goldscore.Internal.Torsion.Weighted>
-0.4473

> <Gold.Goldscore.External.Vdw.Weighted>
35.0483

> <Gold.Goldscore.Internal.HBond.Weighted>
0.0000

> <Gold.Goldscore.External.HBond.Weighted>
0.6666

> <Gold.Goldscore.Internal.Correction.Weighted>
-0.7551

> <Gold.Rescore>
     Score     S(PLP)   S(hbond)     S(cho)   S(metal)  DE(clash)   DE(tors)     intcor
     33.28     -30.75       1.00       0.00       0.00       0.00       0.24       ----

> <Gold.PLP.Fitness>
33.2811

> <Gold.PLP.PLP>
-30.7523

> <Gold.PLP.part.hbond>
0.1559

> <Gold.PLP.part.metal>
0.0000

> <Gold.PLP.part.buried>
0.7081

> <Gold.PLP.part.nonpolar>
-32.3996

> <Gold.PLP.part.repulsive>
0.3813

> <Gold.PLP.ligand.clash>
0.0000

> <Gold.PLP.ligand.torsion>
0.2356

> <Gold.PLP.Chemscore.Hbond>
1.0000

> <Gold.PLP.Chemscore.CHOScore>
0.0000

> <Gold.PLP.Chemscore.Metal>
0.0000

> <Gold.Chemscore.Hbonds>
donor molecule, donor type, donor heavy atom, donor atom, acceptor molecule, acceptor atom, score
      L1  H     8    22       P1  2620  1.00

> <Gold.PLP.Chemscore.Internal.Correction>
   9.000000E+99

