#       Name:                CT1002167954
#       Creating user name   hitesit
#       Creation time:       Sun Apr 16 22:50:43 2023


#       File generated by GOLD software.
#

@<TRIPOS>MOLECULE
CT1002167954|ligand_prepared|mol2|1|dock7
    29    30     1
SMALL
NO_CHARGES


@<TRIPOS>ATOM
      1 C1          32.9096  19.3524  58.5589 C.3            1 RES1               0.0000
      2 C2          32.3246  20.7038  59.0174 C.ar           1 RES1               0.0000
      3 C3          34.2188  19.6729  57.8436 C.2            1 RES1               0.0000
      4 C4          33.0790  18.5113  59.8193 C.2            1 RES1               0.0000
      5 C5          31.9952  18.5741  57.5844 C.3            1 RES1               0.0000
      6 C6          31.2225  21.2550  58.3704 C.ar           1 RES1               0.0000
      7 C7          32.8734  21.4086  60.0854 C.ar           1 RES1               0.0000
      8 N8          35.3817  19.3830  58.4943 N.am           1 RES1               0.0000
      9 O9          34.2306  20.2081  56.7419 O.2            1 RES1               0.0000
     10 N10         34.3519  18.1808  60.2043 N.am           1 RES1               0.0000
     11 O11         32.1226  18.1458  60.4916 O.2            1 RES1               0.0000
     12 C12         32.4725  17.1601  57.2929 C.3            1 RES1               0.0000
     13 C13         30.6867  22.4653  58.7783 C.ar           1 RES1               0.0000
     14 C14         32.3361  22.6189  60.4915 C.ar           1 RES1               0.0000
     15 C15         35.5124  18.6043  59.6161 C.2            1 RES1               0.0000
     16 C16         31.2428  23.1478  59.8392 C.ar           1 RES1               0.0000
     17 O17         36.6210  18.3091  60.0531 O.2            1 RES1               0.0000
     18 H18         30.9855  18.5251  58.0106 H              1 RES1               0.0000
     19 H19         31.9337  19.1278  56.6394 H              1 RES1               0.0000
     20 H20         30.7730  20.7335  57.5320 H              1 RES1               0.0000
     21 H21         33.7345  21.0121  60.6127 H              1 RES1               0.0000
     22 H22         36.2329  19.7821  58.1116 H              1 RES1               0.0000
     23 H23         34.4427  17.5615  61.0034 H              1 RES1               0.0000
     24 H24         31.7955  16.6588  56.6044 H              1 RES1               0.0000
     25 H25         33.4638  17.1723  56.8447 H              1 RES1               0.0000
     26 H26         32.5213  16.5732  58.2078 H              1 RES1               0.0000
     27 H27         29.8270  22.8779  58.2607 H              1 RES1               0.0000
     28 H28         32.7774  23.1529  61.3266 H              1 RES1               0.0000
     29 H29         30.8226  24.0957  60.1587 H              1 RES1               0.0000
@<TRIPOS>BOND
    1    1    2 1     
    2    1    3 1     
    3    1    4 1     
    4    1    5 1     
    5    2    6 ar    
    6    2    7 ar    
    7    3    8 1     
    8    3    9 2     
    9    4   10 1     
   10    4   11 2     
   11    5   12 1     
   12    5   18 1     
   13    5   19 1     
   14    6   13 ar    
   15    6   20 1     
   16    7   14 ar    
   17    7   21 1     
   18    8   15 1     
   19    8   22 1     
   20   10   15 1     
   21   10   23 1     
   22   12   24 1     
   23   12   25 1     
   24   12   26 1     
   25   13   16 ar    
   26   13   27 1     
   27   14   16 ar    
   28   14   28 1     
   29   15   17 2     
   30   16   29 1     
@<TRIPOS>SUBSTRUCTURE
      1 RES1           1
@<TRIPOS>SET
DONOR_HYDROGENS      STATIC     ATOMS    <user>   **** ""
2 22 23
ATOM$RED        STATIC     ATOMS    COLORGROUP SYSTEM
2 22 23
@<TRIPOS>COMMENT
> <Gold.Version>
2022.3.0

> <Gold.Id.Protein>
unknown|3l9n_clean|pdb

> <Gold.Protein.RotatedTorsions>
[ 3656 3649 3648 3646 ] final  102.83 input   60.01 | X-H torsion
[ 3578 3569 3568 3566 ] final  134.88 input   59.99 | X-H torsion
[ 3854 3846 3845 3843 ] final -161.36 input   60.02 | X-H torsion
[ 2581 2570 2569 2568 ] final  -84.53 input   60.01 | X-H torsion
[ 3119 3112 3110 3107 ] final -115.27 input   60.01 | X-H torsion
[ 5145 5136 5135 5133 ] final   29.33 input   59.99 | X-H torsion
[ 1922 1917 1916 1913 ] final  139.18 input   59.98 | X-H torsion
[ 3169 3160 3159 3157 ] final   93.44 input   59.99 | X-H torsion
[  630  627  626  623 ] final -167.89 input   60.00 | X-H torsion

> <Gold.Protein.ActiveResidues>
 LEU49   GLY50   THR51   GLY52   SER53   PHE54   GLY55   LEU82   LYS83   GLN84  
 HIS87   GLY126  GLU127  PHE129  SER130  HIS131  LEU132  ARG133  ARG134  GLY136 
 ARG137  ARG165  ASP166  LEU167  LYS168  PRO169  GLU170  ASN171  MET173  ASP184 
 PHE187  TPO197  LEU198  CYS199  GLY200  THR201  PRO202  GLU203  TYR204  LEU205 
 ILE209  ILE210  VAL226  LEU227  TYR229  GLU230  ALA233  GLY234  TYR235  PRO236 
 PRO237  PHE238  PHE239  ALA240  ASP241  GLN242  PRO243  ILE244  GLN245  ILE246 
 TYR247  LYS249  ARG256  PHE257  PRO258  SER259  ASN326  PHE327  ASP328  ASP329 
 TYR330 

> <Gold.Protein.RotatedAtoms>
   27.5927   26.6071   67.0129 H   0  0  0  0  0  0  0  0  0  0  0  0  # atno 630  bound_to 627 
   42.6587   20.3605   53.6211 H   0  0  0  0  0  0  0  0  0  0  0  0  # atno 1922 bound_to 1917
   30.5034   26.8823   57.6455 H   0  0  0  0  0  0  0  0  0  0  0  0  # atno 2581 bound_to 2570
   29.4669   28.0133   57.0170 H   0  0  0  0  0  0  0  0  0  0  0  0  # atno 2582 bound_to 2570
   28.8652   26.6922   57.8180 H   0  0  0  0  0  0  0  0  0  0  0  0  # atno 2583 bound_to 2570
   28.5856   28.8024   56.7393 H   0  0  0  0  0  0  0  0  0  0  0  0  # atno 3119 bound_to 3112
   32.7730   28.8618   48.9451 H   0  0  0  0  0  0  0  0  0  0  0  0  # atno 3169 bound_to 3160
   36.1445   38.9710   42.1861 H   0  0  0  0  0  0  0  0  0  0  0  0  # atno 3578 bound_to 3569
   40.7012   39.6147   43.7808 H   0  0  0  0  0  0  0  0  0  0  0  0  # atno 3656 bound_to 3649
   24.4664   37.1673   59.3271 H   0  0  0  0  0  0  0  0  0  0  0  0  # atno 3854 bound_to 3846
   39.4603   20.9246   60.8622 H   0  0  0  0  0  0  0  0  0  0  0  0  # atno 5145 bound_to 5136
   39.2654   39.1620   43.1634 LP  0  0  0  0  0  0  0  0  0  0  0  0  # atno 5461 bound_to 3649
   40.6065   38.2859   42.8466 LP  0  0  0  0  0  0  0  0  0  0  0  0  # atno 5462 bound_to 3649
   36.7052   38.5414   43.6521 LP  0  0  0  0  0  0  0  0  0  0  0  0  # atno 5463 bound_to 3569
   35.2835   39.3335   43.5185 LP  0  0  0  0  0  0  0  0  0  0  0  0  # atno 5464 bound_to 3569
   25.9635   36.9485   58.7271 LP  0  0  0  0  0  0  0  0  0  0  0  0  # atno 5513 bound_to 3846
   24.6820   36.2308   58.0135 LP  0  0  0  0  0  0  0  0  0  0  0  0  # atno 5514 bound_to 3846
   27.8291   28.3157   55.3836 LP  0  0  0  0  0  0  0  0  0  0  0  0  # atno 5515 bound_to 3112
   26.9677   28.9325   56.6263 LP  0  0  0  0  0  0  0  0  0  0  0  0  # atno 5516 bound_to 3112
   40.6398   22.0194   61.1021 LP  0  0  0  0  0  0  0  0  0  0  0  0  # atno 5523 bound_to 5136
   39.1312   22.3052   61.6579 LP  0  0  0  0  0  0  0  0  0  0  0  0  # atno 5524 bound_to 5136
   41.7567   21.1136   52.4953 LP  0  0  0  0  0  0  0  0  0  0  0  0  # atno 5533 bound_to 1917
   41.1065   20.7284   53.9429 LP  0  0  0  0  0  0  0  0  0  0  0  0  # atno 5534 bound_to 1917
   33.1468   30.4443   49.0039 LP  0  0  0  0  0  0  0  0  0  0  0  0  # atno 5563 bound_to 3160
   32.3799   29.8314   47.6990 LP  0  0  0  0  0  0  0  0  0  0  0  0  # atno 5564 bound_to 3160
   27.8781   25.8835   68.4425 LP  0  0  0  0  0  0  0  0  0  0  0  0  # atno 5571 bound_to 627 
   27.6544   24.9831   67.0987 LP  0  0  0  0  0  0  0  0  0  0  0  0  # atno 5572 bound_to 627 

> <Gold.Score>
     Fitness  S(hb_ext) S(vdw_ext)  S(hb_int)    S(int)      intcor
     30.63       2.98      20.58       0.00      -0.65      -0.76

> <Gold.Goldscore.Fitness>
30.6267

> <Gold.Goldscore.Internal.Vdw>
-0.9333

> <Gold.Goldscore.Internal.Torsion>
-0.4771

> <Gold.Goldscore.External.Vdw>
20.5789

> <Gold.Goldscore.Internal.HBond>
0.0000

> <Gold.Goldscore.External.HBond>
2.9826

> <Gold.Goldscore.Internal.Correction>
-0.7585

> <Gold.Goldscore.Hbonds>
donor molecule, donor type, donor heavy atom, donor atom, acceptor molecule, acceptor atom, score
      L1  H     8    22       P1  1868  0.50

> <Gold.Goldscore.Internal.Vdw.Weighted>
-0.9333

> <Gold.Goldscore.Internal.Torsion.Weighted>
-0.4771

> <Gold.Goldscore.External.Vdw.Weighted>
28.2959

> <Gold.Goldscore.Internal.HBond.Weighted>
0.0000

> <Gold.Goldscore.External.HBond.Weighted>
2.9826

> <Gold.Goldscore.Internal.Correction.Weighted>
-0.7585

> <Gold.Rescore>
     Score     S(PLP)   S(hbond)     S(cho)   S(metal)  DE(clash)   DE(tors)     intcor
     16.69     -16.71       0.00       0.00       0.00       0.00       0.01       ----

> <Gold.PLP.Fitness>
16.6932

> <Gold.PLP.PLP>
-16.7150

> <Gold.PLP.part.hbond>
0.0000

> <Gold.PLP.part.metal>
0.0000

> <Gold.PLP.part.buried>
3.6692

> <Gold.PLP.part.nonpolar>
-25.0228

> <Gold.PLP.part.repulsive>
4.2007

> <Gold.PLP.ligand.clash>
0.0000

> <Gold.PLP.ligand.torsion>
0.0109

> <Gold.PLP.Chemscore.Hbond>
0.0000

> <Gold.PLP.Chemscore.CHOScore>
0.0000

> <Gold.PLP.Chemscore.Metal>
0.0000

> <Gold.Chemscore.Hbonds>
donor molecule, donor type, donor heavy atom, donor atom, acceptor molecule, acceptor atom, score
      L1  H     8    22       P1  1868  1.00

> <Gold.PLP.Chemscore.Internal.Correction>
   9.000000E+99

