#       Name:                CT1002167954
#       Creating user name   hitesit
#       Creation time:       Sun Apr 16 22:50:42 2023


#       File generated by GOLD software.
#

@<TRIPOS>MOLECULE
CT1002167954|ligand_prepared|mol2|1|dock6
    29    30     1
SMALL
NO_CHARGES


@<TRIPOS>ATOM
      1 C1          32.3825  18.0938  58.5975 C.3            1 RES1               0.0000
      2 C2          32.5956  16.6806  58.0176 C.ar           1 RES1               0.0000
      3 C3          33.5581  18.3541  59.5347 C.2            1 RES1               0.0000
      4 C4          32.3177  19.0396  57.4033 C.2            1 RES1               0.0000
      5 C5          31.0702  18.2482  59.4009 C.3            1 RES1               0.0000
      6 C6          33.8372  16.2996  57.5176 C.ar           1 RES1               0.0000
      7 C7          31.5627  15.7478  57.9785 C.ar           1 RES1               0.0000
      8 N8          34.5231  19.2204  59.1124 N.am           1 RES1               0.0000
      9 O9          33.6570  17.7779  60.6110 O.2            1 RES1               0.0000
     10 N10         33.3176  19.9660  57.2629 N.am           1 RES1               0.0000
     11 O11         31.4187  18.9799  56.5735 O.2            1 RES1               0.0000
     12 C12         30.9475  19.5798  60.1247 C.3            1 RES1               0.0000
     13 C13         34.0398  15.0311  56.9999 C.ar           1 RES1               0.0000
     14 C14         31.7674  14.4797  57.4601 C.ar           1 RES1               0.0000
     15 C15         34.4337  20.0791  58.0464 C.2            1 RES1               0.0000
     16 C16         33.0053  14.1202  56.9712 C.ar           1 RES1               0.0000
     17 O17         35.3165  20.9028  57.8244 O.2            1 RES1               0.0000
     18 H18         30.2212  18.1397  58.7147 H              1 RES1               0.0000
     19 H19         31.0106  17.4386  60.1387 H              1 RES1               0.0000
     20 H20         34.6625  17.0037  57.5296 H              1 RES1               0.0000
     21 H21         30.5801  16.0089  58.3566 H              1 RES1               0.0000
     22 H22         35.3915  19.2306  59.6378 H              1 RES1               0.0000
     23 H23         33.2209  20.6333  56.5042 H              1 RES1               0.0000
     24 H24         30.0091  19.6360  60.6726 H              1 RES1               0.0000
     25 H25         31.7622  19.7099  60.8340 H              1 RES1               0.0000
     26 H26         30.9776  20.4069  59.4184 H              1 RES1               0.0000
     27 H27         35.0156  14.7535  56.6152 H              1 RES1               0.0000
     28 H28         30.9502  13.7663  57.4389 H              1 RES1               0.0000
     29 H29         33.1644  13.1264  56.5660 H              1 RES1               0.0000
@<TRIPOS>BOND
    1    1    2 1     
    2    1    3 1     
    3    1    4 1     
    4    1    5 1     
    5    2    6 ar    
    6    2    7 ar    
    7    3    8 1     
    8    3    9 2     
    9    4   10 1     
   10    4   11 2     
   11    5   12 1     
   12    5   18 1     
   13    5   19 1     
   14    6   13 ar    
   15    6   20 1     
   16    7   14 ar    
   17    7   21 1     
   18    8   15 1     
   19    8   22 1     
   20   10   15 1     
   21   10   23 1     
   22   12   24 1     
   23   12   25 1     
   24   12   26 1     
   25   13   16 ar    
   26   13   27 1     
   27   14   16 ar    
   28   14   28 1     
   29   15   17 2     
   30   16   29 1     
@<TRIPOS>SUBSTRUCTURE
      1 RES1           1
@<TRIPOS>SET
DONOR_HYDROGENS      STATIC     ATOMS    <user>   **** ""
2 22 23
ATOM$RED        STATIC     ATOMS    COLORGROUP SYSTEM
2 22 23
@<TRIPOS>COMMENT
> <Gold.Version>
2022.3.0

> <Gold.Id.Protein>
unknown|3l9n_clean|pdb

> <Gold.Protein.RotatedTorsions>
[ 3656 3649 3648 3646 ] final   80.47 input   60.01 | X-H torsion
[ 3578 3569 3568 3566 ] final -136.59 input   59.99 | X-H torsion
[ 3854 3846 3845 3843 ] final    3.48 input   60.02 | X-H torsion
[ 2581 2570 2569 2568 ] final  102.20 input   60.01 | X-H torsion
[ 3119 3112 3110 3107 ] final -113.86 input   60.01 | X-H torsion
[ 5145 5136 5135 5133 ] final  123.18 input   59.99 | X-H torsion
[ 1922 1917 1916 1913 ] final   30.28 input   59.98 | X-H torsion
[ 3169 3160 3159 3157 ] final -118.61 input   59.99 | X-H torsion
[  630  627  626  623 ] final   77.25 input   60.00 | X-H torsion

> <Gold.Protein.ActiveResidues>
 LEU49   GLY50   THR51   GLY52   SER53   PHE54   GLY55   LEU82   LYS83   GLN84  
 HIS87   GLY126  GLU127  PHE129  SER130  HIS131  LEU132  ARG133  ARG134  GLY136 
 ARG137  ARG165  ASP166  LEU167  LYS168  PRO169  GLU170  ASN171  MET173  ASP184 
 PHE187  TPO197  LEU198  CYS199  GLY200  THR201  PRO202  GLU203  TYR204  LEU205 
 ILE209  ILE210  VAL226  LEU227  TYR229  GLU230  ALA233  GLY234  TYR235  PRO236 
 PRO237  PHE238  PHE239  ALA240  ASP241  GLN242  PRO243  ILE244  GLN245  ILE246 
 TYR247  LYS249  ARG256  PHE257  PRO258  SER259  ASN326  PHE327  ASP328  ASP329 
 TYR330 

> <Gold.Protein.RotatedAtoms>
   27.8750   25.9668   68.4275 H   0  0  0  0  0  0  0  0  0  0  0  0  # atno 630  bound_to 627 
   41.9314   21.0641   52.4825 H   0  0  0  0  0  0  0  0  0  0  0  0  # atno 1922 bound_to 1917
   28.6857   27.4180   57.3972 H   0  0  0  0  0  0  0  0  0  0  0  0  # atno 2581 bound_to 2570
   29.8664   26.3963   57.9547 H   0  0  0  0  0  0  0  0  0  0  0  0  # atno 2582 bound_to 2570
   30.2832   27.7725   57.1292 H   0  0  0  0  0  0  0  0  0  0  0  0  # atno 2583 bound_to 2570
   28.5733   28.8111   56.7566 H   0  0  0  0  0  0  0  0  0  0  0  0  # atno 3119 bound_to 3112
   32.5256   30.2437   47.8200 H   0  0  0  0  0  0  0  0  0  0  0  0  # atno 3169 bound_to 3160
   35.2316   39.4018   43.0161 H   0  0  0  0  0  0  0  0  0  0  0  0  # atno 3578 bound_to 3569
   40.3706   39.7611   43.8112 H   0  0  0  0  0  0  0  0  0  0  0  0  # atno 3656 bound_to 3649
   25.3932   36.3069   57.9674 H   0  0  0  0  0  0  0  0  0  0  0  0  # atno 3854 bound_to 3846
   38.8997   21.9656   61.5494 H   0  0  0  0  0  0  0  0  0  0  0  0  # atno 5145 bound_to 5136
   39.3134   38.8586   42.9654 LP  0  0  0  0  0  0  0  0  0  0  0  0  # atno 5461 bound_to 3649
   40.8915   38.4418   43.0140 LP  0  0  0  0  0  0  0  0  0  0  0  0  # atno 5462 bound_to 3649
   36.5600   38.7311   42.3578 LP  0  0  0  0  0  0  0  0  0  0  0  0  # atno 5463 bound_to 3569
   36.3480   38.7099   43.9769 LP  0  0  0  0  0  0  0  0  0  0  0  0  # atno 5464 bound_to 3569
   24.1080   36.7636   58.8555 LP  0  0  0  0  0  0  0  0  0  0  0  0  # atno 5513 bound_to 3846
   25.6046   37.2817   59.2536 LP  0  0  0  0  0  0  0  0  0  0  0  0  # atno 5514 bound_to 3846
   27.8520   28.3140   55.3855 LP  0  0  0  0  0  0  0  0  0  0  0  0  # atno 5515 bound_to 3112
   26.9572   28.9256   56.6069 LP  0  0  0  0  0  0  0  0  0  0  0  0  # atno 5516 bound_to 3112
   39.8706   20.9321   60.7514 LP  0  0  0  0  0  0  0  0  0  0  0  0  # atno 5523 bound_to 5136
   40.4649   22.3442   61.3165 LP  0  0  0  0  0  0  0  0  0  0  0  0  # atno 5524 bound_to 5136
   41.0195   20.8126   53.8067 LP  0  0  0  0  0  0  0  0  0  0  0  0  # atno 5533 bound_to 1917
   42.5764   20.3206   53.7785 LP  0  0  0  0  0  0  0  0  0  0  0  0  # atno 5534 bound_to 1917
   32.5665   28.7890   48.5477 LP  0  0  0  0  0  0  0  0  0  0  0  0  # atno 5563 bound_to 3160
   33.2095   30.0945   49.2887 LP  0  0  0  0  0  0  0  0  0  0  0  0  # atno 5564 bound_to 3160
   27.6696   24.9487   67.1745 LP  0  0  0  0  0  0  0  0  0  0  0  0  # atno 5571 bound_to 627 
   27.5787   26.5626   66.9422 LP  0  0  0  0  0  0  0  0  0  0  0  0  # atno 5572 bound_to 627 

> <Gold.Score>
     Fitness  S(hb_ext) S(vdw_ext)  S(hb_int)    S(int)      intcor
     34.67       2.00      23.82       0.00      -0.08      -0.76

> <Gold.Goldscore.Fitness>
34.6715

> <Gold.Goldscore.Internal.Vdw>
-0.3829

> <Gold.Goldscore.Internal.Torsion>
-0.4633

> <Gold.Goldscore.External.Vdw>
23.8201

> <Gold.Goldscore.Internal.HBond>
0.0000

> <Gold.Goldscore.External.HBond>
2.0000

> <Gold.Goldscore.Internal.Correction>
-0.7650

> <Gold.Goldscore.Hbonds>
donor molecule, donor type, donor heavy atom, donor atom, acceptor molecule, acceptor atom, score
      L1  H    10    23       P1  2601  1.00

> <Gold.Goldscore.Internal.Vdw.Weighted>
-0.3829

> <Gold.Goldscore.Internal.Torsion.Weighted>
-0.4633

> <Gold.Goldscore.External.Vdw.Weighted>
32.7527

> <Gold.Goldscore.Internal.HBond.Weighted>
0.0000

> <Gold.Goldscore.External.HBond.Weighted>
2.0000

> <Gold.Goldscore.Internal.Correction.Weighted>
-0.7650

> <Gold.Rescore>
     Score     S(PLP)   S(hbond)     S(cho)   S(metal)  DE(clash)   DE(tors)     intcor
     36.83     -36.09       0.99       0.00       0.00       0.00       1.12       ----

> <Gold.PLP.Fitness>
36.8320

> <Gold.PLP.PLP>
-36.0909

> <Gold.PLP.part.hbond>
-1.9586

> <Gold.PLP.part.metal>
0.0000

> <Gold.PLP.part.buried>
-0.7981

> <Gold.PLP.part.nonpolar>
-34.3803

> <Gold.PLP.part.repulsive>
0.4177

> <Gold.PLP.ligand.clash>
0.0000

> <Gold.PLP.ligand.torsion>
1.1174

> <Gold.PLP.Chemscore.Hbond>
0.9920

> <Gold.PLP.Chemscore.CHOScore>
0.0000

> <Gold.PLP.Chemscore.Metal>
0.0000

> <Gold.Chemscore.Hbonds>
donor molecule, donor type, donor heavy atom, donor atom, acceptor molecule, acceptor atom, score
      L1  H    10    23       P1  2601  1.00

> <Gold.PLP.Chemscore.Internal.Correction>
   9.000000E+99

