#       Name:                CT1002167954
#       Creating user name   hitesit
#       Creation time:       Sun Apr 16 22:50:44 2023


#       File generated by GOLD software.
#

@<TRIPOS>MOLECULE
CT1002167954|ligand_prepared|mol2|1|dock8
    29    30     1
SMALL
NO_CHARGES


@<TRIPOS>ATOM
      1 C1          31.8726  19.0861  58.9006 C.3            1 RES1               0.0000
      2 C2          31.2178  20.4031  59.3648 C.ar           1 RES1               0.0000
      3 C3          32.7260  19.4370  57.6853 C.2            1 RES1               0.0000
      4 C4          32.6697  18.5634  60.0906 C.2            1 RES1               0.0000
      5 C5          30.8573  17.9946  58.4892 C.3            1 RES1               0.0000
      6 C6          30.0158  20.3881  60.0661 C.ar           1 RES1               0.0000
      7 C7          31.8040  21.6383  59.1021 C.ar           1 RES1               0.0000
      8 N8          34.0795  19.4643  57.8504 N.am           1 RES1               0.0000
      9 O9          32.2173  19.7241  56.6087 O.2            1 RES1               0.0000
     10 N10         34.0343  18.5116  59.9764 N.am           1 RES1               0.0000
     11 O11         32.1296  18.2116  61.1321 O.2            1 RES1               0.0000
     12 C12         31.4755  16.8447  57.7096 C.3            1 RES1               0.0000
     13 C13         29.4228  21.5651  60.4919 C.ar           1 RES1               0.0000
     14 C14         31.2092  22.8142  59.5286 C.ar           1 RES1               0.0000
     15 C15         34.7773  18.9672  58.9216 C.2            1 RES1               0.0000
     16 C16         30.0192  22.7788  60.2239 C.ar           1 RES1               0.0000
     17 O17         36.0046  18.9363  58.9153 O.2            1 RES1               0.0000
     18 H18         30.3839  17.5936  59.3939 H              1 RES1               0.0000
     19 H19         30.0727  18.4551  57.8762 H              1 RES1               0.0000
     20 H20         29.5304  19.4426  60.2841 H              1 RES1               0.0000
     21 H21         32.7396  21.6904  58.5558 H              1 RES1               0.0000
     22 H22         34.6230  19.8943  57.1087 H              1 RES1               0.0000
     23 H23         34.5434  18.0946  60.7493 H              1 RES1               0.0000
     24 H24         30.7202  16.1074  57.4458 H              1 RES1               0.0000
     25 H25         31.9337  17.2040  56.7905 H              1 RES1               0.0000
     26 H26         32.2431  16.3476  58.2992 H              1 RES1               0.0000
     27 H27         28.4856  21.5319  61.0375 H              1 RES1               0.0000
     28 H28         31.6818  23.7672  59.3149 H              1 RES1               0.0000
     29 H29         29.5547  23.7007  60.5579 H              1 RES1               0.0000
@<TRIPOS>BOND
    1    1    2 1     
    2    1    3 1     
    3    1    4 1     
    4    1    5 1     
    5    2    6 ar    
    6    2    7 ar    
    7    3    8 1     
    8    3    9 2     
    9    4   10 1     
   10    4   11 2     
   11    5   12 1     
   12    5   18 1     
   13    5   19 1     
   14    6   13 ar    
   15    6   20 1     
   16    7   14 ar    
   17    7   21 1     
   18    8   15 1     
   19    8   22 1     
   20   10   15 1     
   21   10   23 1     
   22   12   24 1     
   23   12   25 1     
   24   12   26 1     
   25   13   16 ar    
   26   13   27 1     
   27   14   16 ar    
   28   14   28 1     
   29   15   17 2     
   30   16   29 1     
@<TRIPOS>SUBSTRUCTURE
      1 RES1           1
@<TRIPOS>SET
DONOR_HYDROGENS      STATIC     ATOMS    <user>   **** ""
2 22 23
ATOM$RED        STATIC     ATOMS    COLORGROUP SYSTEM
2 22 23
@<TRIPOS>COMMENT
> <Gold.Version>
2022.3.0

> <Gold.Id.Protein>
unknown|3l9n_clean|pdb

> <Gold.Protein.RotatedTorsions>
[ 3656 3649 3648 3646 ] final   89.64 input   60.01 | X-H torsion
[ 3578 3569 3568 3566 ] final  102.53 input   59.99 | X-H torsion
[ 3854 3846 3845 3843 ] final -138.91 input   60.02 | X-H torsion
[ 2581 2570 2569 2568 ] final  -38.59 input   60.01 | X-H torsion
[ 3119 3112 3110 3107 ] final   75.46 input   60.01 | X-H torsion
[ 5145 5136 5135 5133 ] final   49.68 input   59.99 | X-H torsion
[ 1922 1917 1916 1913 ] final -161.51 input   59.98 | X-H torsion
[ 3169 3160 3159 3157 ] final  -51.10 input   59.99 | X-H torsion
[  630  627  626  623 ] final  -75.42 input   60.00 | X-H torsion

> <Gold.Protein.ActiveResidues>
 LEU49   GLY50   THR51   GLY52   SER53   PHE54   GLY55   LEU82   LYS83   GLN84  
 HIS87   GLY126  GLU127  PHE129  SER130  HIS131  LEU132  ARG133  ARG134  GLY136 
 ARG137  ARG165  ASP166  LEU167  LYS168  PRO169  GLU170  ASN171  MET173  ASP184 
 PHE187  TPO197  LEU198  CYS199  GLY200  THR201  PRO202  GLU203  TYR204  LEU205 
 ILE209  ILE210  VAL226  LEU227  TYR229  GLU230  ALA233  GLY234  TYR235  PRO236 
 PRO237  PHE238  PHE239  ALA240  ASP241  GLN242  PRO243  ILE244  GLN245  ILE246 
 TYR247  LYS249  ARG256  PHE257  PRO258  SER259  ASN326  PHE327  ASP328  ASP329 
 TYR330 

> <Gold.Protein.RotatedAtoms>
   27.5864   25.2769   66.7685 H   0  0  0  0  0  0  0  0  0  0  0  0  # atno 630  bound_to 627 
   41.9387   20.3536   54.2041 H   0  0  0  0  0  0  0  0  0  0  0  0  # atno 1922 bound_to 1917
   30.4812   27.5260   57.2671 H   0  0  0  0  0  0  0  0  0  0  0  0  # atno 2581 bound_to 2570
   28.8314   27.6855   57.2336 H   0  0  0  0  0  0  0  0  0  0  0  0  # atno 2582 bound_to 2570
   29.5225   26.3761   57.9799 H   0  0  0  0  0  0  0  0  0  0  0  0  # atno 2583 bound_to 2570
   27.1127   28.5037   55.6377 H   0  0  0  0  0  0  0  0  0  0  0  0  # atno 3119 bound_to 3112
   33.0141   30.6058   48.6637 H   0  0  0  0  0  0  0  0  0  0  0  0  # atno 3169 bound_to 3160
   36.5651   38.7243   42.3716 H   0  0  0  0  0  0  0  0  0  0  0  0  # atno 3578 bound_to 3569
   40.5124   39.7136   43.8086 H   0  0  0  0  0  0  0  0  0  0  0  0  # atno 3656 bound_to 3649
   24.2289   36.9811   59.1225 H   0  0  0  0  0  0  0  0  0  0  0  0  # atno 3854 bound_to 3846
   39.1773   21.0329   60.9946 H   0  0  0  0  0  0  0  0  0  0  0  0  # atno 5145 bound_to 5136
   39.2768   38.9826   43.0427 LP  0  0  0  0  0  0  0  0  0  0  0  0  # atno 5461 bound_to 3649
   40.7852   38.3656   42.9392 LP  0  0  0  0  0  0  0  0  0  0  0  0  # atno 5462 bound_to 3649
   36.3360   38.7160   43.9826 LP  0  0  0  0  0  0  0  0  0  0  0  0  # atno 5463 bound_to 3569
   35.2291   39.4073   43.0012 LP  0  0  0  0  0  0  0  0  0  0  0  0  # atno 5464 bound_to 3569
   25.8449   37.1425   59.0152 LP  0  0  0  0  0  0  0  0  0  0  0  0  # atno 5513 bound_to 3846
   25.0396   36.2242   57.9313 LP  0  0  0  0  0  0  0  0  0  0  0  0  # atno 5514 bound_to 3846
   27.5891   29.0586   57.0911 LP  0  0  0  0  0  0  0  0  0  0  0  0  # atno 5515 bound_to 3112
   28.6919   28.4907   56.0290 LP  0  0  0  0  0  0  0  0  0  0  0  0  # atno 5516 bound_to 3112
   40.6494   21.7244   60.9478 LP  0  0  0  0  0  0  0  0  0  0  0  0  # atno 5523 bound_to 5136
   39.4067   22.4912   61.6789 LP  0  0  0  0  0  0  0  0  0  0  0  0  # atno 5524 bound_to 5136
   42.5721   20.7424   52.7564 LP  0  0  0  0  0  0  0  0  0  0  0  0  # atno 5533 bound_to 1917
   41.0165   21.1065   53.0946 LP  0  0  0  0  0  0  0  0  0  0  0  0  # atno 5534 bound_to 1917
   32.3257   29.4393   47.7623 LP  0  0  0  0  0  0  0  0  0  0  0  0  # atno 5563 bound_to 3160
   32.9582   29.0793   49.2241 LP  0  0  0  0  0  0  0  0  0  0  0  0  # atno 5564 bound_to 3160
   27.6629   26.7637   67.4259 LP  0  0  0  0  0  0  0  0  0  0  0  0  # atno 5571 bound_to 627 
   27.8760   25.4423   68.3614 LP  0  0  0  0  0  0  0  0  0  0  0  0  # atno 5572 bound_to 627 

> <Gold.Score>
     Fitness  S(hb_ext) S(vdw_ext)  S(hb_int)    S(int)      intcor
     29.10       0.00      21.85       0.00      -0.94      -0.76

> <Gold.Goldscore.Fitness>
29.1000

> <Gold.Goldscore.Internal.Vdw>
-0.9945

> <Gold.Goldscore.Internal.Torsion>
-0.7057

> <Gold.Goldscore.External.Vdw>
21.8485

> <Gold.Goldscore.Internal.HBond>
0.0000

> <Gold.Goldscore.External.HBond>
0.0000

> <Gold.Goldscore.Internal.Correction>
-0.7585

> <Gold.Goldscore.Internal.Vdw.Weighted>
-0.9945

> <Gold.Goldscore.Internal.Torsion.Weighted>
-0.7057

> <Gold.Goldscore.External.Vdw.Weighted>
30.0416

> <Gold.Goldscore.Internal.HBond.Weighted>
0.0000

> <Gold.Goldscore.External.HBond.Weighted>
0.0000

> <Gold.Goldscore.Internal.Correction.Weighted>
-0.7585

> <Gold.Rescore>
     Score     S(PLP)   S(hbond)     S(cho)   S(metal)  DE(clash)   DE(tors)     intcor
     19.13     -21.37       0.00       0.00       0.00       0.00       1.12       ----

> <Gold.PLP.Fitness>
19.1274

> <Gold.PLP.PLP>
-21.3737

> <Gold.PLP.part.hbond>
-0.2288

> <Gold.PLP.part.metal>
0.0000

> <Gold.PLP.part.buried>
5.8765

> <Gold.PLP.part.nonpolar>
-28.3448

> <Gold.PLP.part.repulsive>
0.3574

> <Gold.PLP.ligand.clash>
0.0000

> <Gold.PLP.ligand.torsion>
1.1232

> <Gold.PLP.Chemscore.Hbond>
0.0000

> <Gold.PLP.Chemscore.CHOScore>
0.0000

> <Gold.PLP.Chemscore.Metal>
0.0000

> <Gold.PLP.Chemscore.Internal.Correction>
   9.000000E+99

