#       Name:                CT1002167954
#       Creating user name   hitesit
#       Creation time:       Sun Apr 16 22:50:41 2023


#       File generated by GOLD software.
#

@<TRIPOS>MOLECULE
CT1002167954|ligand_prepared|mol2|1|dock5
    29    30     1
SMALL
NO_CHARGES


@<TRIPOS>ATOM
      1 C1          33.3853  19.7259  59.4300 C.3            1 RES1               0.0000
      2 C2          31.8956  19.6126  59.8132 C.ar           1 RES1               0.0000
      3 C3          33.5910  21.1518  58.9273 C.2            1 RES1               0.0000
      4 C4          34.1765  19.3899  60.6892 C.2            1 RES1               0.0000
      5 C5          33.8203  18.7449  58.3164 C.3            1 RES1               0.0000
      6 C6          31.2547  20.6518  60.4809 C.ar           1 RES1               0.0000
      7 C7          31.1499  18.4781  59.5041 C.ar           1 RES1               0.0000
      8 N8          34.2544  22.0199  59.7435 N.am           1 RES1               0.0000
      9 O9          33.1435  21.5197  57.8481 O.2            1 RES1               0.0000
     10 N10         34.9288  20.3835  61.2590 N.am           1 RES1               0.0000
     11 O11         34.1422  18.2783  61.2025 O.2            1 RES1               0.0000
     12 C12         35.2348  18.9801  57.8104 C.3            1 RES1               0.0000
     13 C13         29.9159  20.5616  60.8244 C.ar           1 RES1               0.0000
     14 C14         29.8113  18.3899  59.8488 C.ar           1 RES1               0.0000
     15 C15         34.9793  21.6915  60.8608 C.2            1 RES1               0.0000
     16 C16         29.1933  19.4310  60.5083 C.ar           1 RES1               0.0000
     17 O17         35.6371  22.5392  61.4574 O.2            1 RES1               0.0000
     18 H18         33.7487  17.7200  58.7009 H              1 RES1               0.0000
     19 H19         33.1241  18.8363  57.4736 H              1 RES1               0.0000
     20 H20         31.8078  21.5484  60.7402 H              1 RES1               0.0000
     21 H21         31.6155  17.6463  58.9865 H              1 RES1               0.0000
     22 H22         34.2070  23.0044  59.5007 H              1 RES1               0.0000
     23 H23         35.5045  20.1238  62.0537 H              1 RES1               0.0000
     24 H24         35.4893  18.2653  57.0307 H              1 RES1               0.0000
     25 H25         35.3353  19.9818  57.3977 H              1 RES1               0.0000
     26 H26         35.9562  18.8722  58.6177 H              1 RES1               0.0000
     27 H27         29.4346  21.3832  61.3446 H              1 RES1               0.0000
     28 H28         29.2466  17.4979  59.5985 H              1 RES1               0.0000
     29 H29         28.1445  19.3607  60.7772 H              1 RES1               0.0000
@<TRIPOS>BOND
    1    1    2 1     
    2    1    3 1     
    3    1    4 1     
    4    1    5 1     
    5    2    6 ar    
    6    2    7 ar    
    7    3    8 1     
    8    3    9 2     
    9    4   10 1     
   10    4   11 2     
   11    5   12 1     
   12    5   18 1     
   13    5   19 1     
   14    6   13 ar    
   15    6   20 1     
   16    7   14 ar    
   17    7   21 1     
   18    8   15 1     
   19    8   22 1     
   20   10   15 1     
   21   10   23 1     
   22   12   24 1     
   23   12   25 1     
   24   12   26 1     
   25   13   16 ar    
   26   13   27 1     
   27   14   16 ar    
   28   14   28 1     
   29   15   17 2     
   30   16   29 1     
@<TRIPOS>SUBSTRUCTURE
      1 RES1           1
@<TRIPOS>SET
DONOR_HYDROGENS      STATIC     ATOMS    <user>   **** ""
2 22 23
ATOM$RED        STATIC     ATOMS    COLORGROUP SYSTEM
2 22 23
@<TRIPOS>COMMENT
> <Gold.Version>
2022.3.0

> <Gold.Id.Protein>
unknown|3l9n_clean|pdb

> <Gold.Protein.RotatedTorsions>
[ 3656 3649 3648 3646 ] final  -50.79 input   60.01 | X-H torsion
[ 3578 3569 3568 3566 ] final  -65.06 input   59.99 | X-H torsion
[ 3854 3846 3845 3843 ] final  -93.64 input   60.02 | X-H torsion
[ 2581 2570 2569 2568 ] final  179.33 input   60.01 | X-H torsion
[ 3119 3112 3110 3107 ] final   52.60 input   60.01 | X-H torsion
[ 5145 5136 5135 5133 ] final   72.83 input   59.99 | X-H torsion
[ 1922 1917 1916 1913 ] final  -35.05 input   59.98 | X-H torsion
[ 3169 3160 3159 3157 ] final -143.43 input   59.99 | X-H torsion
[  630  627  626  623 ] final -155.01 input   60.00 | X-H torsion

> <Gold.Protein.ActiveResidues>
 LEU49   GLY50   THR51   GLY52   SER53   PHE54   GLY55   LEU82   LYS83   GLN84  
 HIS87   GLY126  GLU127  PHE129  SER130  HIS131  LEU132  ARG133  ARG134  GLY136 
 ARG137  ARG165  ASP166  LEU167  LYS168  PRO169  GLU170  ASN171  MET173  ASP184 
 PHE187  TPO197  LEU198  CYS199  GLY200  THR201  PRO202  GLU203  TYR204  LEU205 
 ILE209  ILE210  VAL226  LEU227  TYR229  GLU230  ALA233  GLY234  TYR235  PRO236 
 PRO237  PHE238  PHE239  ALA240  ASP241  GLN242  PRO243  ILE244  GLN245  ILE246 
 TYR247  LYS249  ARG256  PHE257  PRO258  SER259  ASN326  PHE327  ASP328  ASP329 
 TYR330 

> <Gold.Protein.RotatedAtoms>
   27.5671   26.4723   66.8538 H   0  0  0  0  0  0  0  0  0  0  0  0  # atno 630  bound_to 627 
   41.0688   21.1282   53.0050 H   0  0  0  0  0  0  0  0  0  0  0  0  # atno 1922 bound_to 1917
   29.1713   26.4708   57.9372 H   0  0  0  0  0  0  0  0  0  0  0  0  # atno 2581 bound_to 2570
   30.5677   27.2171   57.4453 H   0  0  0  0  0  0  0  0  0  0  0  0  # atno 2582 bound_to 2570
   29.0968   27.8993   57.0984 H   0  0  0  0  0  0  0  0  0  0  0  0  # atno 2583 bound_to 2570
   26.9208   28.6444   55.9223 H   0  0  0  0  0  0  0  0  0  0  0  0  # atno 3119 bound_to 3112
   32.3930   29.8804   47.7092 H   0  0  0  0  0  0  0  0  0  0  0  0  # atno 3169 bound_to 3160
   35.6712   39.0798   43.9651 H   0  0  0  0  0  0  0  0  0  0  0  0  # atno 3578 bound_to 3569
   39.3944   38.7134   42.8854 H   0  0  0  0  0  0  0  0  0  0  0  0  # atno 3656 bound_to 3649
   24.1398   36.5486   58.5527 H   0  0  0  0  0  0  0  0  0  0  0  0  # atno 3854 bound_to 3846
   38.9428   21.2631   61.1765 H   0  0  0  0  0  0  0  0  0  0  0  0  # atno 5145 bound_to 5136
   40.9975   38.5556   43.1145 LP  0  0  0  0  0  0  0  0  0  0  0  0  # atno 5461 bound_to 3649
   40.1908   39.8003   43.7974 LP  0  0  0  0  0  0  0  0  0  0  0  0  # atno 5462 bound_to 3649
   35.5944   39.2621   42.3499 LP  0  0  0  0  0  0  0  0  0  0  0  0  # atno 5463 bound_to 3569
   36.8710   38.5033   43.0291 LP  0  0  0  0  0  0  0  0  0  0  0  0  # atno 5464 bound_to 3569
   25.2708   37.3460   59.4095 LP  0  0  0  0  0  0  0  0  0  0  0  0  # atno 5513 bound_to 3846
   25.7034   36.4559   58.1105 LP  0  0  0  0  0  0  0  0  0  0  0  0  # atno 5514 bound_to 3846
   27.9609   29.0268   57.1137 LP  0  0  0  0  0  0  0  0  0  0  0  0  # atno 5515 bound_to 3112
   28.5135   28.3807   55.7195 LP  0  0  0  0  0  0  0  0  0  0  0  0  # atno 5516 bound_to 3112
   40.5232   21.3945   60.8123 LP  0  0  0  0  0  0  0  0  0  0  0  0  # atno 5523 bound_to 5136
   39.7689   22.5892   61.6311 LP  0  0  0  0  0  0  0  0  0  0  0  0  # atno 5524 bound_to 5136
   41.8374   20.3755   54.2261 LP  0  0  0  0  0  0  0  0  0  0  0  0  # atno 5533 bound_to 1917
   42.6274   20.6931   52.8327 LP  0  0  0  0  0  0  0  0  0  0  0  0  # atno 5534 bound_to 1917
   32.7508   28.8371   48.9054 LP  0  0  0  0  0  0  0  0  0  0  0  0  # atno 5563 bound_to 3160
   33.1587   30.4124   49.0426 LP  0  0  0  0  0  0  0  0  0  0  0  0  # atno 5564 bound_to 3160
   27.8655   26.0918   68.4078 LP  0  0  0  0  0  0  0  0  0  0  0  0  # atno 5571 bound_to 627 
   27.6929   24.9105   67.2936 LP  0  0  0  0  0  0  0  0  0  0  0  0  # atno 5572 bound_to 627 

> <Gold.Score>
     Fitness  S(hb_ext) S(vdw_ext)  S(hb_int)    S(int)      intcor
     32.07       0.00      23.49       0.00      -0.23      -0.76

> <Gold.Goldscore.Fitness>
32.0704

> <Gold.Goldscore.Internal.Vdw>
-0.5364

> <Gold.Goldscore.Internal.Torsion>
-0.4631

> <Gold.Goldscore.External.Vdw>
23.4945

> <Gold.Goldscore.Internal.HBond>
0.0000

> <Gold.Goldscore.External.HBond>
0.0000

> <Gold.Goldscore.Internal.Correction>
-0.7650

> <Gold.Goldscore.Internal.Vdw.Weighted>
-0.5364

> <Gold.Goldscore.Internal.Torsion.Weighted>
-0.4631

> <Gold.Goldscore.External.Vdw.Weighted>
32.3050

> <Gold.Goldscore.Internal.HBond.Weighted>
0.0000

> <Gold.Goldscore.External.HBond.Weighted>
0.0000

> <Gold.Goldscore.Internal.Correction.Weighted>
-0.7650

> <Gold.Rescore>
     Score     S(PLP)   S(hbond)     S(cho)   S(metal)  DE(clash)   DE(tors)     intcor
     27.46     -28.81       0.00       0.00       0.00       0.00       0.67       ----

> <Gold.PLP.Fitness>
27.4627

> <Gold.PLP.PLP>
-28.8097

> <Gold.PLP.part.hbond>
0.0000

> <Gold.PLP.part.metal>
0.0000

> <Gold.PLP.part.buried>
-1.4666

> <Gold.PLP.part.nonpolar>
-32.8340

> <Gold.PLP.part.repulsive>
4.6038

> <Gold.PLP.ligand.clash>
0.0000

> <Gold.PLP.ligand.torsion>
0.6735

> <Gold.PLP.Chemscore.Hbond>
0.0000

> <Gold.PLP.Chemscore.CHOScore>
0.0000

> <Gold.PLP.Chemscore.Metal>
0.0000

> <Gold.PLP.Chemscore.Internal.Correction>
   9.000000E+99

