#       Name:                CT1002167954
#       Creating user name   hitesit
#       Creation time:       Sun Apr 16 22:50:46 2023


#       File generated by GOLD software.
#

@<TRIPOS>MOLECULE
CT1002167954|ligand_prepared|mol2|1|dock9
    29    30     1
SMALL
NO_CHARGES


@<TRIPOS>ATOM
      1 C1          30.2638  23.6822  59.7700 C.3            1 RES1               0.0000
      2 C2          30.1376  22.1792  60.0925 C.ar           1 RES1               0.0000
      3 C3          29.3833  23.9339  58.5495 C.2            1 RES1               0.0000
      4 C4          29.8171  24.4264  61.0235 C.2            1 RES1               0.0000
      5 C5          31.7057  24.1307  59.4364 C.3            1 RES1               0.0000
      6 C6          31.1078  21.2785  59.6634 C.ar           1 RES1               0.0000
      7 C7          29.0600  21.6798  60.8192 C.ar           1 RES1               0.0000
      8 N8          28.2038  24.5898  58.7457 N.am           1 RES1               0.0000
      9 O9          29.7005  23.5281  57.4382 O.2            1 RES1               0.0000
     10 N10         28.6760  25.1816  60.9495 N.am           1 RES1               0.0000
     11 O11         30.4338  24.3524  62.0792 O.2            1 RES1               0.0000
     12 C12         31.9196  25.6327  59.5385 C.3            1 RES1               0.0000
     13 C13         31.0061  19.9279  59.9528 C.ar           1 RES1               0.0000
     14 C14         28.9601  20.3287  61.1072 C.ar           1 RES1               0.0000
     15 C15         27.8323  25.2724  59.8761 C.2            1 RES1               0.0000
     16 C16         29.9326  19.4521  60.6751 C.ar           1 RES1               0.0000
     17 O17         26.7955  25.9291  59.9040 O.2            1 RES1               0.0000
     18 H18         32.3993  23.6279  60.1215 H              1 RES1               0.0000
     19 H19         31.9488  23.8080  58.4165 H              1 RES1               0.0000
     20 H20         31.9585  21.6341  59.0917 H              1 RES1               0.0000
     21 H21         28.2825  22.3508  61.1684 H              1 RES1               0.0000
     22 H22         27.5363  24.5710  57.9813 H              1 RES1               0.0000
     23 H23         28.4331  25.7266  61.7706 H              1 RES1               0.0000
     24 H24         32.9474  25.8934  59.2944 H              1 RES1               0.0000
     25 H25         31.2633  26.1634  58.8519 H              1 RES1               0.0000
     26 H26         31.7111  25.9844  60.5468 H              1 RES1               0.0000
     27 H27         31.7734  19.2420  59.6092 H              1 RES1               0.0000
     28 H28         28.1132  19.9586  61.6755 H              1 RES1               0.0000
     29 H29         29.8533  18.3941  60.9020 H              1 RES1               0.0000
@<TRIPOS>BOND
    1    1    2 1     
    2    1    3 1     
    3    1    4 1     
    4    1    5 1     
    5    2    6 ar    
    6    2    7 ar    
    7    3    8 1     
    8    3    9 2     
    9    4   10 1     
   10    4   11 2     
   11    5   12 1     
   12    5   18 1     
   13    5   19 1     
   14    6   13 ar    
   15    6   20 1     
   16    7   14 ar    
   17    7   21 1     
   18    8   15 1     
   19    8   22 1     
   20   10   15 1     
   21   10   23 1     
   22   12   24 1     
   23   12   25 1     
   24   12   26 1     
   25   13   16 ar    
   26   13   27 1     
   27   14   16 ar    
   28   14   28 1     
   29   15   17 2     
   30   16   29 1     
@<TRIPOS>SUBSTRUCTURE
      1 RES1           1
@<TRIPOS>SET
DONOR_HYDROGENS      STATIC     ATOMS    <user>   **** ""
2 22 23
ATOM$RED        STATIC     ATOMS    COLORGROUP SYSTEM
2 22 23
@<TRIPOS>COMMENT
> <Gold.Version>
2022.3.0

> <Gold.Id.Protein>
unknown|3l9n_clean|pdb

> <Gold.Protein.RotatedTorsions>
[ 3656 3649 3648 3646 ] final  100.05 input   60.01 | X-H torsion
[ 3578 3569 3568 3566 ] final   65.77 input   59.99 | X-H torsion
[ 3854 3846 3845 3843 ] final  169.28 input   60.02 | X-H torsion
[ 2581 2570 2569 2568 ] final -174.98 input   60.01 | X-H torsion
[ 3119 3112 3110 3107 ] final -155.70 input   60.01 | X-H torsion
[ 5145 5136 5135 5133 ] final  116.46 input   59.99 | X-H torsion
[ 1922 1917 1916 1913 ] final   35.16 input   59.98 | X-H torsion
[ 3169 3160 3159 3157 ] final  -40.75 input   59.99 | X-H torsion
[  630  627  626  623 ] final  176.49 input   60.00 | X-H torsion

> <Gold.Protein.ActiveResidues>
 LEU49   GLY50   THR51   GLY52   SER53   PHE54   GLY55   LEU82   LYS83   GLN84  
 HIS87   GLY126  GLU127  PHE129  SER130  HIS131  LEU132  ARG133  ARG134  GLY136 
 ARG137  ARG165  ASP166  LEU167  LYS168  PRO169  GLU170  ASN171  MET173  ASP184 
 PHE187  TPO197  LEU198  CYS199  GLY200  THR201  PRO202  GLU203  TYR204  LEU205 
 ILE209  ILE210  VAL226  LEU227  TYR229  GLU230  ALA233  GLY234  TYR235  PRO236 
 PRO237  PHE238  PHE239  ALA240  ASP241  GLN242  PRO243  ILE244  GLN245  ILE246 
 TYR247  LYS249  ARG256  PHE257  PRO258  SER259  ASN326  PHE327  ASP328  ASP329 
 TYR330 

> <Gold.Protein.RotatedAtoms>
   27.6316   26.7173   67.2389 H   0  0  0  0  0  0  0  0  0  0  0  0  # atno 630  bound_to 627 
   42.0070   21.0389   52.4843 H   0  0  0  0  0  0  0  0  0  0  0  0  # atno 1922 bound_to 1917
   29.2578   26.4354   57.9549 H   0  0  0  0  0  0  0  0  0  0  0  0  # atno 2581 bound_to 2570
   30.5587   27.2988   57.3975 H   0  0  0  0  0  0  0  0  0  0  0  0  # atno 2582 bound_to 2570
   29.0194   27.8531   57.1285 H   0  0  0  0  0  0  0  0  0  0  0  0  # atno 2583 bound_to 2570
   28.7172   28.5451   56.1608 H   0  0  0  0  0  0  0  0  0  0  0  0  # atno 3119 bound_to 3112
   33.0752   30.5542   48.8125 H   0  0  0  0  0  0  0  0  0  0  0  0  # atno 3169 bound_to 3160
   36.8413   38.5314   42.8563 H   0  0  0  0  0  0  0  0  0  0  0  0  # atno 3578 bound_to 3569
   40.6633   39.6384   43.7890 H   0  0  0  0  0  0  0  0  0  0  0  0  # atno 3656 bound_to 3649
   24.9000   37.3199   59.4459 H   0  0  0  0  0  0  0  0  0  0  0  0  # atno 3854 bound_to 3846
   38.8657   21.8693   61.5092 H   0  0  0  0  0  0  0  0  0  0  0  0  # atno 5145 bound_to 5136
   39.2637   39.1246   43.1373 LP  0  0  0  0  0  0  0  0  0  0  0  0  # atno 5461 bound_to 3649
   40.6463   38.2995   42.8644 LP  0  0  0  0  0  0  0  0  0  0  0  0  # atno 5462 bound_to 3649
   35.8150   38.9981   44.0298 LP  0  0  0  0  0  0  0  0  0  0  0  0  # atno 5463 bound_to 3569
   35.4721   39.3194   42.4658 LP  0  0  0  0  0  0  0  0  0  0  0  0  # atno 5464 bound_to 3569
   25.9064   36.6618   58.3490 LP  0  0  0  0  0  0  0  0  0  0  0  0  # atno 5513 bound_to 3846
   24.3027   36.3638   58.2720 LP  0  0  0  0  0  0  0  0  0  0  0  0  # atno 5514 bound_to 3846
   27.2133   28.4525   55.5469 LP  0  0  0  0  0  0  0  0  0  0  0  0  # atno 5515 bound_to 3112
   27.4509   29.0550   57.0460 LP  0  0  0  0  0  0  0  0  0  0  0  0  # atno 5516 bound_to 3112
   39.9760   20.9631   60.7388 LP  0  0  0  0  0  0  0  0  0  0  0  0  # atno 5523 bound_to 5136
   40.3939   22.4102   61.3697 LP  0  0  0  0  0  0  0  0  0  0  0  0  # atno 5524 bound_to 5136
   40.9908   20.8489   53.7410 LP  0  0  0  0  0  0  0  0  0  0  0  0  # atno 5533 bound_to 1917
   42.5289   20.3097   53.8423 LP  0  0  0  0  0  0  0  0  0  0  0  0  # atno 5534 bound_to 1917
   32.3391   29.6028   47.7169 LP  0  0  0  0  0  0  0  0  0  0  0  0  # atno 5563 bound_to 3160
   32.8832   28.9679   49.1196 LP  0  0  0  0  0  0  0  0  0  0  0  0  # atno 5564 bound_to 3160
   27.8818   25.6282   68.4221 LP  0  0  0  0  0  0  0  0  0  0  0  0  # atno 5571 bound_to 627 
   27.6116   25.1275   66.8915 LP  0  0  0  0  0  0  0  0  0  0  0  0  # atno 5572 bound_to 627 

> <Gold.Score>
     Fitness  S(hb_ext) S(vdw_ext)  S(hb_int)    S(int)      intcor
     33.26       5.65      20.89       0.00      -1.10      -0.76

> <Gold.Goldscore.Fitness>
33.2642

> <Gold.Goldscore.Internal.Vdw>
-1.0289

> <Gold.Goldscore.Internal.Torsion>
-0.8342

> <Gold.Goldscore.External.Vdw>
20.8882

> <Gold.Goldscore.Internal.HBond>
0.0000

> <Gold.Goldscore.External.HBond>
5.6475

> <Gold.Goldscore.Internal.Correction>
-0.7585

> <Gold.Goldscore.Hbonds>
donor molecule, donor type, donor heavy atom, donor atom, acceptor molecule, acceptor atom, score
      L1  H     8    22       P1  2538  0.94

> <Gold.Goldscore.Internal.Vdw.Weighted>
-1.0289

> <Gold.Goldscore.Internal.Torsion.Weighted>
-0.8342

> <Gold.Goldscore.External.Vdw.Weighted>
28.7213

> <Gold.Goldscore.Internal.HBond.Weighted>
0.0000

> <Gold.Goldscore.External.HBond.Weighted>
5.6475

> <Gold.Goldscore.Internal.Correction.Weighted>
-0.7585

> <Gold.Rescore>
     Score     S(PLP)   S(hbond)     S(cho)   S(metal)  DE(clash)   DE(tors)     intcor
     12.30     -10.35       0.86       0.00       0.00       0.00       0.32       ----

> <Gold.PLP.Fitness>
12.3005

> <Gold.PLP.PLP>
-10.3493

> <Gold.PLP.part.hbond>
-3.5424

> <Gold.PLP.part.metal>
0.0000

> <Gold.PLP.part.buried>
11.8401

> <Gold.PLP.part.nonpolar>
-26.2509

> <Gold.PLP.part.repulsive>
6.8609

> <Gold.PLP.ligand.clash>
0.0000

> <Gold.PLP.ligand.torsion>
0.3163

> <Gold.PLP.Chemscore.Hbond>
0.8613

> <Gold.PLP.Chemscore.CHOScore>
0.0000

> <Gold.PLP.Chemscore.Metal>
0.0000

> <Gold.Chemscore.Hbonds>
donor molecule, donor type, donor heavy atom, donor atom, acceptor molecule, acceptor atom, score
      L1  H     8    22       P1  2538  1.00

> <Gold.PLP.Chemscore.Internal.Correction>
   9.000000E+99

