#       Name:                CT1002167954
#       Creating user name   hitesit
#       Creation time:       Sun Apr 16 22:50:11 2023


#       File generated by GOLD software.
#

@<TRIPOS>MOLECULE
CT1002167954|ligand_prepared|mol2|1|dock3
    29    30     1
SMALL
NO_CHARGES


@<TRIPOS>ATOM
      1 C1          33.4165  18.3602  58.6238 C.3            1 RES1               0.0000
      2 C2          32.0096  18.5005  59.2401 C.ar           1 RES1               0.0000
      3 C3          33.3477  19.0127  57.2461 C.2            1 RES1               0.0000
      4 C4          34.3759  19.0464  59.5899 C.2            1 RES1               0.0000
      5 C5          33.8795  16.8949  58.4507 C.3            1 RES1               0.0000
      6 C6          31.0923  17.4573  59.1570 C.ar           1 RES1               0.0000
      7 C7          31.6163  19.6639  59.8961 C.ar           1 RES1               0.0000
      8 N8          33.9506  20.2260  57.0908 N.am           1 RES1               0.0000
      9 O9          32.7398  18.4889  56.3207 O.2            1 RES1               0.0000
     10 N10         35.0214  20.1761  59.1598 N.am           1 RES1               0.0000
     11 O11         34.5660  18.6286  60.7255 O.2            1 RES1               0.0000
     12 C12         35.3684  16.7506  58.1776 C.3            1 RES1               0.0000
     13 C13         29.8286  17.5717  59.7121 C.ar           1 RES1               0.0000
     14 C14         30.3519  19.7764  60.4503 C.ar           1 RES1               0.0000
     15 C15         34.8290  20.8144  57.9649 C.2            1 RES1               0.0000
     16 C16         29.4576  18.7310  60.3594 C.ar           1 RES1               0.0000
     17 O17         35.4068  21.8572  57.6720 O.2            1 RES1               0.0000
     18 H18         33.6319  16.3364  59.3619 H              1 RES1               0.0000
     19 H19         33.3229  16.4445  57.6197 H              1 RES1               0.0000
     20 H20         31.3655  16.5382  58.6493 H              1 RES1               0.0000
     21 H21         32.3028  20.4996  59.9788 H              1 RES1               0.0000
     22 H22         33.7277  20.7439  56.2468 H              1 RES1               0.0000
     23 H23         35.7092  20.5783  59.7886 H              1 RES1               0.0000
     24 H24         35.6400  15.7032  58.0644 H              1 RES1               0.0000
     25 H25         35.6455  17.2731  57.2643 H              1 RES1               0.0000
     26 H26         35.9527  17.1657  58.9962 H              1 RES1               0.0000
     27 H27         29.1280  16.7466  59.6366 H              1 RES1               0.0000
     28 H28         30.0640  20.6909  60.9584 H              1 RES1               0.0000
     29 H29         28.4677  18.8202  60.7945 H              1 RES1               0.0000
@<TRIPOS>BOND
    1    1    2 1     
    2    1    3 1     
    3    1    4 1     
    4    1    5 1     
    5    2    6 ar    
    6    2    7 ar    
    7    3    8 1     
    8    3    9 2     
    9    4   10 1     
   10    4   11 2     
   11    5   12 1     
   12    5   18 1     
   13    5   19 1     
   14    6   13 ar    
   15    6   20 1     
   16    7   14 ar    
   17    7   21 1     
   18    8   15 1     
   19    8   22 1     
   20   10   15 1     
   21   10   23 1     
   22   12   24 1     
   23   12   25 1     
   24   12   26 1     
   25   13   16 ar    
   26   13   27 1     
   27   14   16 ar    
   28   14   28 1     
   29   15   17 2     
   30   16   29 1     
@<TRIPOS>SUBSTRUCTURE
      1 RES1           1
@<TRIPOS>SET
DONOR_HYDROGENS      STATIC     ATOMS    <user>   **** ""
2 22 23
ATOM$RED        STATIC     ATOMS    COLORGROUP SYSTEM
2 22 23
@<TRIPOS>COMMENT
> <Gold.Version>
2022.3.0

> <Gold.Id.Protein>
unknown|3l9n_clean|pdb

> <Gold.Protein.RotatedTorsions>
[ 2826 2819 2817 2814 ] final  173.52 input   59.97 | X-H torsion
[ 5145 5136 5135 5133 ] final   52.54 input   59.99 | X-H torsion
[ 1819 1812 1811 1809 ] final  162.03 input   59.98 | X-H torsion
[ 2506 2497 2496 2494 ] final -118.64 input   59.98 | X-H torsion
[ 2581 2570 2569 2568 ] final  -68.50 input   60.01 | X-H torsion
[ 3119 3112 3110 3107 ] final  -18.14 input   60.01 | X-H torsion

> <Gold.Protein.ActiveResidues>
 THR48   LEU49   GLY50   THR51   GLY52   SER53   PHE54   GLY55   ARG56   VAL57  
 MET58   LEU59   TYR69   ALA70   MET71   LYS72   ILE73   LEU74   GLU91   LEU95  
 VAL104  LYS105  LEU106  MET118  VAL119  MET120  GLU121  TYR122  ALA123  PRO124 
 GLY125  GLY126  GLU127  MET128  PHE129  TYR164  ASP166  LYS168  PRO169  GLU170 
 ASN171  LEU172  MET173  ILE174  ASP175  LYS181  VAL182  THR183  ASP184  PHE185 
 GLY186  PHE187  THR201  PHE327  ASP328  TYR330 

> <Gold.Protein.RotatedAtoms>
   41.8463    9.5843   56.7357 H   0  0  0  0  0  0  0  0  0  0  0  0  # atno 1819 bound_to 1812
   26.6876   21.9582   53.3509 H   0  0  0  0  0  0  0  0  0  0  0  0  # atno 2506 bound_to 2497
   30.5645   27.1052   57.5120 H   0  0  0  0  0  0  0  0  0  0  0  0  # atno 2581 bound_to 2570
   29.2114   27.9512   57.0630 H   0  0  0  0  0  0  0  0  0  0  0  0  # atno 2582 bound_to 2570
   29.0594   26.5314   57.9056 H   0  0  0  0  0  0  0  0  0  0  0  0  # atno 2583 bound_to 2570
   30.9568   17.9516   55.5827 H   0  0  0  0  0  0  0  0  0  0  0  0  # atno 2826 bound_to 2819
   27.2085   29.0211   56.8965 H   0  0  0  0  0  0  0  0  0  0  0  0  # atno 3119 bound_to 3112
   39.1424   21.0557   61.0158 H   0  0  0  0  0  0  0  0  0  0  0  0  # atno 5145 bound_to 5136
   29.5702   18.7632   55.3233 LP  0  0  0  0  0  0  0  0  0  0  0  0  # atno 5479 bound_to 2819
   30.5176   18.3363   54.0636 LP  0  0  0  0  0  0  0  0  0  0  0  0  # atno 5480 bound_to 2819
   40.6415   21.6823   60.9283 LP  0  0  0  0  0  0  0  0  0  0  0  0  # atno 5483 bound_to 5136
   39.4497   22.5103   61.6770 LP  0  0  0  0  0  0  0  0  0  0  0  0  # atno 5484 bound_to 5136
   41.1750   10.7625   57.6357 LP  0  0  0  0  0  0  0  0  0  0  0  0  # atno 5511 bound_to 1812
   41.3841   10.9763   56.0303 LP  0  0  0  0  0  0  0  0  0  0  0  0  # atno 5512 bound_to 1812
   27.2310   21.0346   52.1263 LP  0  0  0  0  0  0  0  0  0  0  0  0  # atno 5533 bound_to 2497
   26.3496   20.3666   53.3278 LP  0  0  0  0  0  0  0  0  0  0  0  0  # atno 5534 bound_to 2497
   28.7221   28.6539   56.4260 LP  0  0  0  0  0  0  0  0  0  0  0  0  # atno 5545 bound_to 3112
   27.4623   28.3740   55.4255 LP  0  0  0  0  0  0  0  0  0  0  0  0  # atno 5546 bound_to 3112

> <Gold.Score>
     Fitness  S(hb_ext) S(vdw_ext)  S(hb_int)    S(int)      intcor
     37.80       2.70      25.98       0.00      -0.62      -0.76

> <Gold.Goldscore.Fitness>
37.7998

> <Gold.Goldscore.Internal.Vdw>
-0.7035

> <Gold.Goldscore.Internal.Torsion>
-0.6816

> <Gold.Goldscore.External.Vdw>
25.9756

> <Gold.Goldscore.Internal.HBond>
0.0000

> <Gold.Goldscore.External.HBond>
2.7035

> <Gold.Goldscore.Internal.Correction>
-0.7650

> <Gold.Goldscore.Hbonds>
donor molecule, donor type, donor heavy atom, donor atom, acceptor molecule, acceptor atom, score
      P1  H  2819  2826       L1     9  0.35
      L1  H     8    22       P1  2601  1.00

> <Gold.Goldscore.Internal.Vdw.Weighted>
-0.7035

> <Gold.Goldscore.Internal.Torsion.Weighted>
-0.6816

> <Gold.Goldscore.External.Vdw.Weighted>
35.7165

> <Gold.Goldscore.Internal.HBond.Weighted>
0.0000

> <Gold.Goldscore.External.HBond.Weighted>
2.7035

> <Gold.Goldscore.Internal.Correction.Weighted>
-0.7650

> <Gold.Rescore>
     Score     S(PLP)   S(hbond)     S(cho)   S(metal)  DE(clash)   DE(tors)     intcor
     36.61     -33.12       1.82       0.00       0.00       0.00       0.99       ----

> <Gold.PLP.Fitness>
36.6116

> <Gold.PLP.PLP>
-33.1164

> <Gold.PLP.part.hbond>
-1.7179

> <Gold.PLP.part.metal>
0.0000

> <Gold.PLP.part.buried>
-0.3513

> <Gold.PLP.part.nonpolar>
-32.7394

> <Gold.PLP.part.repulsive>
0.5138

> <Gold.PLP.ligand.clash>
0.0000

> <Gold.PLP.ligand.torsion>
0.9884

> <Gold.PLP.Chemscore.Hbond>
1.8240

> <Gold.PLP.Chemscore.CHOScore>
0.0000

> <Gold.PLP.Chemscore.Metal>
0.0000

> <Gold.Chemscore.Hbonds>
donor molecule, donor type, donor heavy atom, donor atom, acceptor molecule, acceptor atom, score
      L1  H     8    22       P1  2601  0.71
      P1  H  2819  2826       L1     9  1.00

> <Gold.PLP.Chemscore.Internal.Correction>
   9.000000E+99

#       Name:                CT1002167954
#       Creating user name   hitesit
#       Creation time:       Sun Apr 16 22:50:10 2023


#       File generated by GOLD software.
#

@<TRIPOS>MOLECULE
CT1002167954|ligand_prepared|mol2|1|dock2
    29    30     1
SMALL
NO_CHARGES


@<TRIPOS>ATOM
      1 C1          33.7762  17.8737  58.8583 C.3            1 RES1               0.0000
      2 C2          32.2781  17.5146  58.9329 C.ar           1 RES1               0.0000
      3 C3          33.9371  18.7916  57.6501 C.2            1 RES1               0.0000
      4 C4          34.1242  18.5306  60.1895 C.2            1 RES1               0.0000
      5 C5          34.7034  16.6501  58.6725 C.3            1 RES1               0.0000
      6 C6          31.7716  16.4351  58.2154 C.ar           1 RES1               0.0000
      7 C7          31.3924  18.2506  59.7155 C.ar           1 RES1               0.0000
      8 N8          34.1476  20.1179  57.8879 N.am           1 RES1               0.0000
      9 O9          33.8414  18.3648  56.5060 O.2            1 RES1               0.0000
     10 N10         34.4841  19.8527  60.1783 N.am           1 RES1               0.0000
     11 O11         34.0738  17.9197  61.2499 O.2            1 RES1               0.0000
     12 C12         36.1786  16.9634  58.8675 C.3            1 RES1               0.0000
     13 C13         30.4289  16.1015  58.2802 C.ar           1 RES1               0.0000
     14 C14         30.0499  17.9154  59.7787 C.ar           1 RES1               0.0000
     15 C15         34.4819  20.6843  59.0917 C.2            1 RES1               0.0000
     16 C16         29.5673  16.8411  59.0621 C.ar           1 RES1               0.0000
     17 O17         34.7657  21.8760  59.1708 O.2            1 RES1               0.0000
     18 H18         34.4099  15.8726  59.3886 H              1 RES1               0.0000
     19 H19         34.5586  16.2474  57.6624 H              1 RES1               0.0000
     20 H20         32.4340  15.8430  57.5927 H              1 RES1               0.0000
     21 H21         31.7496  19.1006  60.2870 H              1 RES1               0.0000
     22 H22         34.0470  20.7468  57.0975 H              1 RES1               0.0000
     23 H23         34.7815  20.2542  61.0619 H              1 RES1               0.0000
     24 H24         36.7845  16.0709  58.7259 H              1 RES1               0.0000
     25 H25         36.5108  17.7152  58.1546 H              1 RES1               0.0000
     26 H26         36.3630  17.3426  59.8706 H              1 RES1               0.0000
     27 H27         30.0538  15.2559  57.7132 H              1 RES1               0.0000
     28 H28         29.3754  18.5006  60.3949 H              1 RES1               0.0000
     29 H29         28.5156  16.5793  59.1130 H              1 RES1               0.0000
@<TRIPOS>BOND
    1    1    2 1     
    2    1    3 1     
    3    1    4 1     
    4    1    5 1     
    5    2    6 ar    
    6    2    7 ar    
    7    3    8 1     
    8    3    9 2     
    9    4   10 1     
   10    4   11 2     
   11    5   12 1     
   12    5   18 1     
   13    5   19 1     
   14    6   13 ar    
   15    6   20 1     
   16    7   14 ar    
   17    7   21 1     
   18    8   15 1     
   19    8   22 1     
   20   10   15 1     
   21   10   23 1     
   22   12   24 1     
   23   12   25 1     
   24   12   26 1     
   25   13   16 ar    
   26   13   27 1     
   27   14   16 ar    
   28   14   28 1     
   29   15   17 2     
   30   16   29 1     
@<TRIPOS>SUBSTRUCTURE
      1 RES1           1
@<TRIPOS>SET
DONOR_HYDROGENS      STATIC     ATOMS    <user>   **** ""
2 22 23
ATOM$RED        STATIC     ATOMS    COLORGROUP SYSTEM
2 22 23
@<TRIPOS>COMMENT
> <Gold.Version>
2022.3.0

> <Gold.Id.Protein>
unknown|3l9n_clean|pdb

> <Gold.Protein.RotatedTorsions>
[ 2826 2819 2817 2814 ] final  114.23 input   59.97 | X-H torsion
[ 5145 5136 5135 5133 ] final   56.33 input   59.99 | X-H torsion
[ 1819 1812 1811 1809 ] final   64.55 input   59.98 | X-H torsion
[ 2506 2497 2496 2494 ] final  124.07 input   59.98 | X-H torsion
[ 2581 2570 2569 2568 ] final -130.55 input   60.01 | X-H torsion
[ 3119 3112 3110 3107 ] final  -77.30 input   60.01 | X-H torsion

> <Gold.Protein.ActiveResidues>
 THR48   LEU49   GLY50   THR51   GLY52   SER53   PHE54   GLY55   ARG56   VAL57  
 MET58   LEU59   TYR69   ALA70   MET71   LYS72   ILE73   LEU74   GLU91   LEU95  
 VAL104  LYS105  LEU106  MET118  VAL119  MET120  GLU121  TYR122  ALA123  PRO124 
 GLY125  GLY126  GLU127  MET128  PHE129  TYR164  ASP166  LYS168  PRO169  GLU170 
 ASN171  LEU172  MET173  ILE174  ASP175  LYS181  VAL182  THR183  ASP184  PHE185 
 GLY186  PHE187  THR201  PHE327  ASP328  TYR330 

> <Gold.Protein.RotatedAtoms>
   41.3000   10.4283   57.7214 H   0  0  0  0  0  0  0  0  0  0  0  0  # atno 1819 bound_to 1812
   27.2341   21.0791   52.1323 H   0  0  0  0  0  0  0  0  0  0  0  0  # atno 2506 bound_to 2497
   29.9812   26.4291   57.9318 H   0  0  0  0  0  0  0  0  0  0  0  0  # atno 2581 bound_to 2570
   30.1918   27.8423   57.0909 H   0  0  0  0  0  0  0  0  0  0  0  0  # atno 2582 bound_to 2570
   28.6628   27.3162   57.4579 H   0  0  0  0  0  0  0  0  0  0  0  0  # atno 2583 bound_to 2570
   30.1923   18.3561   55.9143 H   0  0  0  0  0  0  0  0  0  0  0  0  # atno 2826 bound_to 2819
   28.1148   28.9950   57.0740 H   0  0  0  0  0  0  0  0  0  0  0  0  # atno 3119 bound_to 3112
   39.0986   21.0886   61.0446 H   0  0  0  0  0  0  0  0  0  0  0  0  # atno 5145 bound_to 5136
   29.7311   18.7524   54.4047 LP  0  0  0  0  0  0  0  0  0  0  0  0  # atno 5479 bound_to 2819
   31.1264   17.9398   54.6484 LP  0  0  0  0  0  0  0  0  0  0  0  0  # atno 5480 bound_to 2819
   40.6276   21.6268   60.9035 LP  0  0  0  0  0  0  0  0  0  0  0  0  # atno 5483 bound_to 5136
   39.5077   22.5327   61.6728 LP  0  0  0  0  0  0  0  0  0  0  0  0  # atno 5484 bound_to 5136
   41.2413   11.1970   56.2880 LP  0  0  0  0  0  0  0  0  0  0  0  0  # atno 5511 bound_to 1812
   41.8678    9.6921   56.3855 LP  0  0  0  0  0  0  0  0  0  0  0  0  # atno 5512 bound_to 1812
   26.3649   20.3420   53.2938 LP  0  0  0  0  0  0  0  0  0  0  0  0  # atno 5533 bound_to 2497
   26.6654   21.9444   53.3875 LP  0  0  0  0  0  0  0  0  0  0  0  0  # atno 5534 bound_to 2497
   28.3988   28.3470   55.6089 LP  0  0  0  0  0  0  0  0  0  0  0  0  # atno 5545 bound_to 3112
   26.8724   28.7072   56.0638 LP  0  0  0  0  0  0  0  0  0  0  0  0  # atno 5546 bound_to 3112

> <Gold.Score>
     Fitness  S(hb_ext) S(vdw_ext)  S(hb_int)    S(int)      intcor
     36.76       1.37      26.26       0.00      -0.72      -0.76

> <Gold.Goldscore.Fitness>
36.7622

> <Gold.Goldscore.Internal.Vdw>
-0.9267

> <Gold.Goldscore.Internal.Torsion>
-0.5584

> <Gold.Goldscore.External.Vdw>
26.2625

> <Gold.Goldscore.Internal.HBond>
0.0000

> <Gold.Goldscore.External.HBond>
1.3714

> <Gold.Goldscore.Internal.Correction>
-0.7650

> <Gold.Goldscore.Hbonds>
donor molecule, donor type, donor heavy atom, donor atom, acceptor molecule, acceptor atom, score
      L1  H     8    22       P1  2601  0.69

> <Gold.Goldscore.Internal.Vdw.Weighted>
-0.9267

> <Gold.Goldscore.Internal.Torsion.Weighted>
-0.5584

> <Gold.Goldscore.External.Vdw.Weighted>
36.1110

> <Gold.Goldscore.Internal.HBond.Weighted>
0.0000

> <Gold.Goldscore.External.HBond.Weighted>
1.3714

> <Gold.Goldscore.Internal.Correction.Weighted>
-0.7650

> <Gold.Rescore>
     Score     S(PLP)   S(hbond)     S(cho)   S(metal)  DE(clash)   DE(tors)     intcor
     34.36     -33.13       0.99       0.00       0.00       0.00       0.87       ----

> <Gold.PLP.Fitness>
34.3634

> <Gold.PLP.PLP>
-33.1301

> <Gold.PLP.part.hbond>
-1.7661

> <Gold.PLP.part.metal>
0.0000

> <Gold.PLP.part.buried>
0.8619

> <Gold.PLP.part.nonpolar>
-33.1603

> <Gold.PLP.part.repulsive>
0.3907

> <Gold.PLP.ligand.clash>
0.0000

> <Gold.PLP.ligand.torsion>
0.8702

> <Gold.PLP.Chemscore.Hbond>
0.9913

> <Gold.PLP.Chemscore.CHOScore>
0.0000

> <Gold.PLP.Chemscore.Metal>
0.0000

> <Gold.Chemscore.Hbonds>
donor molecule, donor type, donor heavy atom, donor atom, acceptor molecule, acceptor atom, score
      L1  H     8    22       P1  2601  0.62

> <Gold.PLP.Chemscore.Internal.Correction>
   9.000000E+99

#       Name:                CT1002167954
#       Creating user name   hitesit
#       Creation time:       Sun Apr 16 22:50:12 2023


#       File generated by GOLD software.
#

@<TRIPOS>MOLECULE
CT1002167954|ligand_prepared|mol2|1|dock4
    29    30     1
SMALL
NO_CHARGES


@<TRIPOS>ATOM
      1 C1          33.0892  19.0722  58.7082 C.3            1 RES1               0.0000
      2 C2          34.0435  17.8626  58.6377 C.ar           1 RES1               0.0000
      3 C3          32.3450  19.1090  57.3767 C.2            1 RES1               0.0000
      4 C4          32.1904  18.8366  59.9170 C.2            1 RES1               0.0000
      5 C5          33.8101  20.4261  58.9055 C.3            1 RES1               0.0000
      6 C6          33.5631  16.5994  58.3057 C.ar           1 RES1               0.0000
      7 C7          35.4047  17.9946  58.8990 C.ar           1 RES1               0.0000
      8 N8          31.0384  18.7181  57.3722 N.am           1 RES1               0.0000
      9 O9          32.9070  19.4381  56.3394 O.2            1 RES1               0.0000
     10 N10         30.8537  18.6340  59.6935 N.am           1 RES1               0.0000
     11 O11         32.6303  18.8080  61.0598 O.2            1 RES1               0.0000
     12 C12         32.8764  21.6261  58.8880 C.3            1 RES1               0.0000
     13 C13         34.4130  15.5082  58.2344 C.ar           1 RES1               0.0000
     14 C14         36.2530  16.9019  58.8274 C.ar           1 RES1               0.0000
     15 C15         30.2420  18.5336  58.4737 C.2            1 RES1               0.0000
     16 C16         35.7585  15.6587  58.4948 C.ar           1 RES1               0.0000
     17 O17         29.0437  18.2957  58.3528 O.2            1 RES1               0.0000
     18 H18         34.3419  20.4064  59.8648 H              1 RES1               0.0000
     19 H19         34.5564  20.5479  58.1108 H              1 RES1               0.0000
     20 H20         32.5069  16.4612  58.0999 H              1 RES1               0.0000
     21 H21         35.8158  18.9629  59.1636 H              1 RES1               0.0000
     22 H22         30.6142  18.5472  56.4660 H              1 RES1               0.0000
     23 H23         30.2596  18.5505  60.5123 H              1 RES1               0.0000
     24 H24         33.4330  22.5500  59.0305 H              1 RES1               0.0000
     25 H25         32.3495  21.6911  57.9383 H              1 RES1               0.0000
     26 H26         32.1362  21.5505  59.6819 H              1 RES1               0.0000
     27 H27         34.0187  14.5316  57.9736 H              1 RES1               0.0000
     28 H28         37.3111  17.0249  59.0337 H              1 RES1               0.0000
     29 H29         36.4242  14.8038  58.4386 H              1 RES1               0.0000
@<TRIPOS>BOND
    1    1    2 1     
    2    1    3 1     
    3    1    4 1     
    4    1    5 1     
    5    2    6 ar    
    6    2    7 ar    
    7    3    8 1     
    8    3    9 2     
    9    4   10 1     
   10    4   11 2     
   11    5   12 1     
   12    5   18 1     
   13    5   19 1     
   14    6   13 ar    
   15    6   20 1     
   16    7   14 ar    
   17    7   21 1     
   18    8   15 1     
   19    8   22 1     
   20   10   15 1     
   21   10   23 1     
   22   12   24 1     
   23   12   25 1     
   24   12   26 1     
   25   13   16 ar    
   26   13   27 1     
   27   14   16 ar    
   28   14   28 1     
   29   15   17 2     
   30   16   29 1     
@<TRIPOS>SUBSTRUCTURE
      1 RES1           1
@<TRIPOS>SET
DONOR_HYDROGENS      STATIC     ATOMS    <user>   **** ""
2 22 23
ATOM$RED        STATIC     ATOMS    COLORGROUP SYSTEM
2 22 23
@<TRIPOS>COMMENT
> <Gold.Version>
2022.3.0

> <Gold.Id.Protein>
unknown|3l9n_clean|pdb

> <Gold.Protein.RotatedTorsions>
[ 2826 2819 2817 2814 ] final  -40.46 input   59.97 | X-H torsion
[ 5145 5136 5135 5133 ] final   11.83 input   59.99 | X-H torsion
[ 1819 1812 1811 1809 ] final   77.15 input   59.98 | X-H torsion
[ 2506 2497 2496 2494 ] final   41.82 input   59.98 | X-H torsion
[ 2581 2570 2569 2568 ] final  -55.43 input   60.01 | X-H torsion
[ 3119 3112 3110 3107 ] final   97.59 input   60.01 | X-H torsion

> <Gold.Protein.ActiveResidues>
 THR48   LEU49   GLY50   THR51   GLY52   SER53   PHE54   GLY55   ARG56   VAL57  
 MET58   LEU59   TYR69   ALA70   MET71   LYS72   ILE73   LEU74   GLU91   LEU95  
 VAL104  LYS105  LEU106  MET118  VAL119  MET120  GLU121  TYR122  ALA123  PRO124 
 GLY125  GLY126  GLU127  MET128  PHE129  TYR164  ASP166  LYS168  PRO169  GLU170 
 ASN171  LEU172  MET173  ILE174  ASP175  LYS181  VAL182  THR183  ASP184  PHE185 
 GLY186  PHE187  THR201  PHE327  ASP328  TYR330 

> <Gold.Protein.RotatedAtoms>
   41.3825   10.2403   57.7114 H   0  0  0  0  0  0  0  0  0  0  0  0  # atno 1819 bound_to 1812
   26.6484   20.2061   52.7736 H   0  0  0  0  0  0  0  0  0  0  0  0  # atno 2506 bound_to 2497
   30.5596   27.2929   57.4016 H   0  0  0  0  0  0  0  0  0  0  0  0  # atno 2581 bound_to 2570
   29.0252   27.8568   57.1255 H   0  0  0  0  0  0  0  0  0  0  0  0  # atno 2582 bound_to 2570
   29.2504   26.4380   57.9535 H   0  0  0  0  0  0  0  0  0  0  0  0  # atno 2583 bound_to 2570
   30.1484   18.5402   54.0969 H   0  0  0  0  0  0  0  0  0  0  0  0  # atno 2826 bound_to 2819
   27.4010   28.3945   55.4536 H   0  0  0  0  0  0  0  0  0  0  0  0  # atno 3119 bound_to 3112
   39.7336   20.9134   60.7824 H   0  0  0  0  0  0  0  0  0  0  0  0  # atno 5145 bound_to 5136
   31.1400   17.8832   55.2076 LP  0  0  0  0  0  0  0  0  0  0  0  0  # atno 5479 bound_to 2819
   29.7618   18.6237   55.6755 LP  0  0  0  0  0  0  0  0  0  0  0  0  # atno 5480 bound_to 2819
   40.5416   22.2474   61.2460 LP  0  0  0  0  0  0  0  0  0  0  0  0  # atno 5483 bound_to 5136
   38.9542   22.0884   61.5944 LP  0  0  0  0  0  0  0  0  0  0  0  0  # atno 5484 bound_to 5136
   41.1754   11.2715   56.4694 LP  0  0  0  0  0  0  0  0  0  0  0  0  # atno 5511 bound_to 1812
   41.8507    9.8068   56.2142 LP  0  0  0  0  0  0  0  0  0  0  0  0  # atno 5512 bound_to 1812
   26.3753   21.5119   53.7052 LP  0  0  0  0  0  0  0  0  0  0  0  0  # atno 5533 bound_to 2497
   27.2448   21.6537   52.3303 LP  0  0  0  0  0  0  0  0  0  0  0  0  # atno 5534 bound_to 2497
   27.2598   29.0331   56.9433 LP  0  0  0  0  0  0  0  0  0  0  0  0  # atno 5545 bound_to 3112
   28.7306   28.6262   56.3622 LP  0  0  0  0  0  0  0  0  0  0  0  0  # atno 5546 bound_to 3112

> <Gold.Score>
     Fitness  S(hb_ext) S(vdw_ext)  S(hb_int)    S(int)      intcor
     35.90       2.00      24.71       0.00      -0.07      -0.76

> <Gold.Goldscore.Fitness>
35.9039

> <Gold.Goldscore.Internal.Vdw>
-0.4462

> <Gold.Goldscore.Internal.Torsion>
-0.3893

> <Gold.Goldscore.External.Vdw>
24.7086

> <Gold.Goldscore.Internal.HBond>
0.0000

> <Gold.Goldscore.External.HBond>
2.0000

> <Gold.Goldscore.Internal.Correction>
-0.7650

> <Gold.Goldscore.Hbonds>
donor molecule, donor type, donor heavy atom, donor atom, acceptor molecule, acceptor atom, score
      L1  H     8    22       P1  2819  1.00

> <Gold.Goldscore.Internal.Vdw.Weighted>
-0.4462

> <Gold.Goldscore.Internal.Torsion.Weighted>
-0.3893

> <Gold.Goldscore.External.Vdw.Weighted>
33.9744

> <Gold.Goldscore.Internal.HBond.Weighted>
0.0000

> <Gold.Goldscore.External.HBond.Weighted>
2.0000

> <Gold.Goldscore.Internal.Correction.Weighted>
-0.7650

> <Gold.Rescore>
     Score     S(PLP)   S(hbond)     S(cho)   S(metal)  DE(clash)   DE(tors)     intcor
     33.36     -33.78       0.61       0.00       0.00       0.00       1.12       ----

> <Gold.PLP.Fitness>
33.3612

> <Gold.PLP.PLP>
-33.7822

> <Gold.PLP.part.hbond>
-1.7873

> <Gold.PLP.part.metal>
0.0000

> <Gold.PLP.part.buried>
1.3560

> <Gold.PLP.part.nonpolar>
-34.0904

> <Gold.PLP.part.repulsive>
0.4491

> <Gold.PLP.ligand.clash>
0.0000

> <Gold.PLP.ligand.torsion>
1.1231

> <Gold.PLP.Chemscore.Hbond>
0.6084

> <Gold.PLP.Chemscore.CHOScore>
0.0000

> <Gold.PLP.Chemscore.Metal>
0.0000

> <Gold.Chemscore.Hbonds>
donor molecule, donor type, donor heavy atom, donor atom, acceptor molecule, acceptor atom, score
      L1  H     8    22       P1  2819  1.00

> <Gold.PLP.Chemscore.Internal.Correction>
   9.000000E+99

#       Name:                CT1002167954
#       Creating user name   hitesit
#       Creation time:       Sun Apr 16 22:50:18 2023


#       File generated by GOLD software.
#

@<TRIPOS>MOLECULE
CT1002167954|ligand_prepared|mol2|1|dock9
    29    30     1
SMALL
NO_CHARGES


@<TRIPOS>ATOM
      1 C1          31.1853  18.4246  59.0944 C.3            1 RES1               0.0000
      2 C2          32.7070  18.2488  59.2735 C.ar           1 RES1               0.0000
      3 C3          30.6564  18.9582  60.4225 C.2            1 RES1               0.0000
      4 C4          31.0014  19.3817  57.9219 C.2            1 RES1               0.0000
      5 C5          30.4396  17.1115  58.7607 C.3            1 RES1               0.0000
      6 C6          33.4924  19.3008  59.7351 C.ar           1 RES1               0.0000
      7 C7          33.3383  17.0419  58.9842 C.ar           1 RES1               0.0000
      8 N8          30.2934  20.2717  60.4761 N.am           1 RES1               0.0000
      9 O9          30.5961  18.2474  61.4182 O.2            1 RES1               0.0000
     10 N10         30.4464  20.6087  58.1755 N.am           1 RES1               0.0000
     11 O11         31.3474  19.0908  56.7835 O.2            1 RES1               0.0000
     12 C12         28.9335  17.2772  58.6326 C.3            1 RES1               0.0000
     13 C13         34.8589  19.1510  59.9043 C.ar           1 RES1               0.0000
     14 C14         34.7050  16.8943  59.1539 C.ar           1 RES1               0.0000
     15 C15         30.1124  21.1087  59.4046 C.2            1 RES1               0.0000
     16 C16         35.4660  17.9477  59.6143 C.ar           1 RES1               0.0000
     17 O17         29.6686  22.2430  59.5583 O.2            1 RES1               0.0000
     18 H18         30.8324  16.7122  57.8175 H              1 RES1               0.0000
     19 H19         30.6481  16.3770  59.5485 H              1 RES1               0.0000
     20 H20         33.0327  20.2560  59.9661 H              1 RES1               0.0000
     21 H21         32.7597  16.1999  58.6198 H              1 RES1               0.0000
     22 H22         30.1426  20.6683  61.3983 H              1 RES1               0.0000
     23 H23         30.2655  21.2043  57.3738 H              1 RES1               0.0000
     24 H24         28.4594  16.3265  58.3980 H              1 RES1               0.0000
     25 H25         28.5059  17.6491  59.5614 H              1 RES1               0.0000
     26 H26         28.6891  17.9823  57.8407 H              1 RES1               0.0000
     27 H27         35.4536  19.9835  60.2656 H              1 RES1               0.0000
     28 H28         35.1786  15.9457  58.9239 H              1 RES1               0.0000
     29 H29         36.5364  17.8305  59.7473 H              1 RES1               0.0000
@<TRIPOS>BOND
    1    1    2 1     
    2    1    3 1     
    3    1    4 1     
    4    1    5 1     
    5    2    6 ar    
    6    2    7 ar    
    7    3    8 1     
    8    3    9 2     
    9    4   10 1     
   10    4   11 2     
   11    5   12 1     
   12    5   18 1     
   13    5   19 1     
   14    6   13 ar    
   15    6   20 1     
   16    7   14 ar    
   17    7   21 1     
   18    8   15 1     
   19    8   22 1     
   20   10   15 1     
   21   10   23 1     
   22   12   24 1     
   23   12   25 1     
   24   12   26 1     
   25   13   16 ar    
   26   13   27 1     
   27   14   16 ar    
   28   14   28 1     
   29   15   17 2     
   30   16   29 1     
@<TRIPOS>SUBSTRUCTURE
      1 RES1           1
@<TRIPOS>SET
DONOR_HYDROGENS      STATIC     ATOMS    <user>   **** ""
2 22 23
ATOM$RED        STATIC     ATOMS    COLORGROUP SYSTEM
2 22 23
@<TRIPOS>COMMENT
> <Gold.Version>
2022.3.0

> <Gold.Id.Protein>
unknown|3l9n_clean|pdb

> <Gold.Protein.RotatedTorsions>
[ 2826 2819 2817 2814 ] final  142.83 input   59.97 | X-H torsion
[ 5145 5136 5135 5133 ] final  169.93 input   59.99 | X-H torsion
[ 1819 1812 1811 1809 ] final  173.59 input   59.98 | X-H torsion
[ 2506 2497 2496 2494 ] final   38.19 input   59.98 | X-H torsion
[ 2581 2570 2569 2568 ] final  -33.95 input   60.01 | X-H torsion
[ 3119 3112 3110 3107 ] final  139.33 input   60.01 | X-H torsion

> <Gold.Protein.ActiveResidues>
 THR48   LEU49   GLY50   THR51   GLY52   SER53   PHE54   GLY55   ARG56   VAL57  
 MET58   LEU59   TYR69   ALA70   MET71   LYS72   ILE73   LEU74   GLU91   LEU95  
 VAL104  LYS105  LEU106  MET118  VAL119  MET120  GLU121  TYR122  ALA123  PRO124 
 GLY125  GLY126  GLU127  MET128  PHE129  TYR164  ASP166  LYS168  PRO169  GLU170 
 ASN171  LEU172  MET173  ILE174  ASP175  LYS181  VAL182  THR183  ASP184  PHE185 
 GLY186  PHE187  THR201  PHE327  ASP328  TYR330 

> <Gold.Protein.RotatedAtoms>
   41.8626    9.6262   56.5526 H   0  0  0  0  0  0  0  0  0  0  0  0  # atno 1819 bound_to 1812
   26.6170   20.2028   52.8238 H   0  0  0  0  0  0  0  0  0  0  0  0  # atno 2506 bound_to 2497
   30.4461   27.5861   57.2330 H   0  0  0  0  0  0  0  0  0  0  0  0  # atno 2581 bound_to 2570
   28.7891   27.6302   57.2677 H   0  0  0  0  0  0  0  0  0  0  0  0  # atno 2582 bound_to 2570
   29.5999   26.3713   57.9798 H   0  0  0  0  0  0  0  0  0  0  0  0  # atno 2583 bound_to 2570
   30.5944   18.1321   55.8685 H   0  0  0  0  0  0  0  0  0  0  0  0  # atno 2826 bound_to 2819
   28.0624   28.3130   55.4341 H   0  0  0  0  0  0  0  0  0  0  0  0  # atno 3119 bound_to 3112
   39.4135   22.4863   61.6780 H   0  0  0  0  0  0  0  0  0  0  0  0  # atno 5145 bound_to 5136
   29.5484   18.8189   54.8280 LP  0  0  0  0  0  0  0  0  0  0  0  0  # atno 5479 bound_to 2819
   30.9042   18.0989   54.2712 LP  0  0  0  0  0  0  0  0  0  0  0  0  # atno 5480 bound_to 2819
   39.1694   21.0311   60.9923 LP  0  0  0  0  0  0  0  0  0  0  0  0  # atno 5483 bound_to 5136
   40.6488   21.7208   60.9461 LP  0  0  0  0  0  0  0  0  0  0  0  0  # atno 5484 bound_to 5136
   41.2349   10.5944   57.7004 LP  0  0  0  0  0  0  0  0  0  0  0  0  # atno 5511 bound_to 1812
   41.3077   11.1023   56.1501 LP  0  0  0  0  0  0  0  0  0  0  0  0  # atno 5512 bound_to 1812
   26.3978   21.5643   53.6875 LP  0  0  0  0  0  0  0  0  0  0  0  0  # atno 5533 bound_to 2497
   27.2539   21.6046   52.2974 LP  0  0  0  0  0  0  0  0  0  0  0  0  # atno 5534 bound_to 2497
   26.8836   28.8539   56.4165 LP  0  0  0  0  0  0  0  0  0  0  0  0  # atno 5545 bound_to 3112
   28.4403   28.8876   56.9086 LP  0  0  0  0  0  0  0  0  0  0  0  0  # atno 5546 bound_to 3112

> <Gold.Score>
     Fitness  S(hb_ext) S(vdw_ext)  S(hb_int)    S(int)      intcor
     35.89       1.12      25.42       0.00      -0.19      -0.76

> <Gold.Goldscore.Fitness>
35.8911

> <Gold.Goldscore.Internal.Vdw>
-0.5801

> <Gold.Goldscore.Internal.Torsion>
-0.3742

> <Gold.Goldscore.External.Vdw>
25.4239

> <Gold.Goldscore.Internal.HBond>
0.0000

> <Gold.Goldscore.External.HBond>
1.1225

> <Gold.Goldscore.Internal.Correction>
-0.7650

> <Gold.Goldscore.Hbonds>
donor molecule, donor type, donor heavy atom, donor atom, acceptor molecule, acceptor atom, score
      P1  H  2819  2826       L1    11  0.15
      L1  H    10    23       P1  2620  0.41

> <Gold.Goldscore.Internal.Vdw.Weighted>
-0.5801

> <Gold.Goldscore.Internal.Torsion.Weighted>
-0.3742

> <Gold.Goldscore.External.Vdw.Weighted>
34.9578

> <Gold.Goldscore.Internal.HBond.Weighted>
0.0000

> <Gold.Goldscore.External.HBond.Weighted>
1.1225

> <Gold.Goldscore.Internal.Correction.Weighted>
-0.7650

> <Gold.Rescore>
     Score     S(PLP)   S(hbond)     S(cho)   S(metal)  DE(clash)   DE(tors)     intcor
     39.09     -36.33       1.61       0.00       0.00       0.00       1.03       ----

> <Gold.PLP.Fitness>
39.0879

> <Gold.PLP.PLP>
-36.3254

> <Gold.PLP.part.hbond>
-1.3674

> <Gold.PLP.part.metal>
0.0000

> <Gold.PLP.part.buried>
0.1049

> <Gold.PLP.part.nonpolar>
-35.0505

> <Gold.PLP.part.repulsive>
0.7040

> <Gold.PLP.ligand.clash>
0.0000

> <Gold.PLP.ligand.torsion>
1.0308

> <Gold.PLP.Chemscore.Hbond>
1.6080

> <Gold.PLP.Chemscore.CHOScore>
0.0000

> <Gold.PLP.Chemscore.Metal>
0.0000

> <Gold.Chemscore.Hbonds>
donor molecule, donor type, donor heavy atom, donor atom, acceptor molecule, acceptor atom, score
      L1  H    10    23       P1  2620  1.00
      P1  H  2819  2826       L1    11  0.69

> <Gold.PLP.Chemscore.Internal.Correction>
   9.000000E+99

#       Name:                CT1002167954
#       Creating user name   hitesit
#       Creation time:       Sun Apr 16 22:50:15 2023


#       File generated by GOLD software.
#

@<TRIPOS>MOLECULE
CT1002167954|ligand_prepared|mol2|1|dock7
    29    30     1
SMALL
NO_CHARGES


@<TRIPOS>ATOM
      1 C1          31.8205  18.6679  58.8393 C.3            1 RES1               0.0000
      2 C2          31.0993  17.3569  58.4654 C.ar           1 RES1               0.0000
      3 C3          31.5655  19.6398  57.6909 C.2            1 RES1               0.0000
      4 C4          31.2319  19.1131  60.1734 C.2            1 RES1               0.0000
      5 C5          33.3484  18.5109  59.0198 C.3            1 RES1               0.0000
      6 C6          29.7188  17.2440  58.6011 C.ar           1 RES1               0.0000
      7 C7          31.7992  16.2547  57.9819 C.ar           1 RES1               0.0000
      8 N8          30.6809  20.6550  57.9070 N.am           1 RES1               0.0000
      9 O9          32.1024  19.4944  56.5997 O.2            1 RES1               0.0000
     10 N10         30.5093  20.2772  60.2000 N.am           1 RES1               0.0000
     11 O11         31.3732  18.4579  61.1986 O.2            1 RES1               0.0000
     12 C12         34.0272  19.7427  59.5978 C.3            1 RES1               0.0000
     13 C13         29.0615  16.0728  58.2628 C.ar           1 RES1               0.0000
     14 C14         31.1400  15.0842  57.6444 C.ar           1 RES1               0.0000
     15 C15         30.1812  21.0523  59.1212 C.2            1 RES1               0.0000
     16 C16         29.7715  14.9924  57.7839 C.ar           1 RES1               0.0000
     17 O17         29.4812  22.0563  59.2170 O.2            1 RES1               0.0000
     18 H18         33.5398  17.6584  59.6830 H              1 RES1               0.0000
     19 H19         33.7978  18.2849  58.0450 H              1 RES1               0.0000
     20 H20         29.1437  18.0829  58.9786 H              1 RES1               0.0000
     21 H21         32.8765  16.3039  57.8649 H              1 RES1               0.0000
     22 H22         30.3613  21.1660  57.0903 H              1 RES1               0.0000
     23 H23         30.1861  20.5954  61.1081 H              1 RES1               0.0000
     24 H24         35.0976  19.5792  59.7038 H              1 RES1               0.0000
     25 H25         33.8785  20.6045  58.9506 H              1 RES1               0.0000
     26 H26         33.6221  19.9817  60.5789 H              1 RES1               0.0000
     27 H27         27.9845  16.0051  58.3757 H              1 RES1               0.0000
     28 H28         31.7028  14.2362  57.2684 H              1 RES1               0.0000
     29 H29         29.2563  14.0751  57.5186 H              1 RES1               0.0000
@<TRIPOS>BOND
    1    1    2 1     
    2    1    3 1     
    3    1    4 1     
    4    1    5 1     
    5    2    6 ar    
    6    2    7 ar    
    7    3    8 1     
    8    3    9 2     
    9    4   10 1     
   10    4   11 2     
   11    5   12 1     
   12    5   18 1     
   13    5   19 1     
   14    6   13 ar    
   15    6   20 1     
   16    7   14 ar    
   17    7   21 1     
   18    8   15 1     
   19    8   22 1     
   20   10   15 1     
   21   10   23 1     
   22   12   24 1     
   23   12   25 1     
   24   12   26 1     
   25   13   16 ar    
   26   13   27 1     
   27   14   16 ar    
   28   14   28 1     
   29   15   17 2     
   30   16   29 1     
@<TRIPOS>SUBSTRUCTURE
      1 RES1           1
@<TRIPOS>SET
DONOR_HYDROGENS      STATIC     ATOMS    <user>   **** ""
2 22 23
ATOM$RED        STATIC     ATOMS    COLORGROUP SYSTEM
2 22 23
@<TRIPOS>COMMENT
> <Gold.Version>
2022.3.0

> <Gold.Id.Protein>
unknown|3l9n_clean|pdb

> <Gold.Protein.RotatedTorsions>
[ 2826 2819 2817 2814 ] final  159.69 input   59.97 | X-H torsion
[ 5145 5136 5135 5133 ] final -113.18 input   59.99 | X-H torsion
[ 1819 1812 1811 1809 ] final   46.54 input   59.98 | X-H torsion
[ 2506 2497 2496 2494 ] final  -56.40 input   59.98 | X-H torsion
[ 2581 2570 2569 2568 ] final  -40.00 input   60.01 | X-H torsion
[ 3119 3112 3110 3107 ] final   82.61 input   60.01 | X-H torsion

> <Gold.Protein.ActiveResidues>
 THR48   LEU49   GLY50   THR51   GLY52   SER53   PHE54   GLY55   ARG56   VAL57  
 MET58   LEU59   TYR69   ALA70   MET71   LYS72   ILE73   LEU74   GLU91   LEU95  
 VAL104  LYS105  LEU106  MET118  VAL119  MET120  GLU121  TYR122  ALA123  PRO124 
 GLY125  GLY126  GLU127  MET128  PHE129  TYR164  ASP166  LYS168  PRO169  GLU170 
 ASN171  LEU172  MET173  ILE174  ASP175  LYS181  VAL182  THR183  ASP184  PHE185 
 GLY186  PHE187  THR201  PHE327  ASP328  TYR330 

> <Gold.Protein.RotatedAtoms>
   41.1972   10.6956   57.6590 H   0  0  0  0  0  0  0  0  0  0  0  0  # atno 1819 bound_to 1812
   26.2762   21.1725   53.7383 H   0  0  0  0  0  0  0  0  0  0  0  0  # atno 2506 bound_to 2497
   30.4908   27.5074   57.2778 H   0  0  0  0  0  0  0  0  0  0  0  0  # atno 2581 bound_to 2570
   28.8452   27.7017   57.2236 H   0  0  0  0  0  0  0  0  0  0  0  0  # atno 2582 bound_to 2570
   29.4991   26.3786   57.9793 H   0  0  0  0  0  0  0  0  0  0  0  0  # atno 2583 bound_to 2570
   30.8093   18.0217   55.7382 H   0  0  0  0  0  0  0  0  0  0  0  0  # atno 2826 bound_to 2819
   27.1966   28.4647   55.5667 H   0  0  0  0  0  0  0  0  0  0  0  0  # atno 3119 bound_to 3112
   40.4946   22.2998   61.2891 H   0  0  0  0  0  0  0  0  0  0  0  0  # atno 5145 bound_to 5136
   29.5315   18.8044   55.1034 LP  0  0  0  0  0  0  0  0  0  0  0  0  # atno 5479 bound_to 2819
   30.7048   18.2246   54.1269 LP  0  0  0  0  0  0  0  0  0  0  0  0  # atno 5480 bound_to 2819
   38.9165   22.0197   61.5693 LP  0  0  0  0  0  0  0  0  0  0  0  0  # atno 5483 bound_to 5136
   39.8130   20.9200   60.7608 LP  0  0  0  0  0  0  0  0  0  0  0  0  # atno 5484 bound_to 5136
   41.3537   11.0283   56.0735 LP  0  0  0  0  0  0  0  0  0  0  0  0  # atno 5511 bound_to 1812
   41.8589    9.5916   56.6629 LP  0  0  0  0  0  0  0  0  0  0  0  0  # atno 5512 bound_to 1812
   27.1511   21.8970   52.5732 LP  0  0  0  0  0  0  0  0  0  0  0  0  # atno 5533 bound_to 2497
   26.8438   20.2953   52.4908 LP  0  0  0  0  0  0  0  0  0  0  0  0  # atno 5534 bound_to 2497
   27.4769   29.0564   57.0562 LP  0  0  0  0  0  0  0  0  0  0  0  0  # atno 5545 bound_to 3112
   28.7195   28.5323   56.1353 LP  0  0  0  0  0  0  0  0  0  0  0  0  # atno 5546 bound_to 3112

> <Gold.Score>
     Fitness  S(hb_ext) S(vdw_ext)  S(hb_int)    S(int)      intcor
     35.77       1.23      25.15       0.00      -0.04      -0.76

> <Gold.Goldscore.Fitness>
35.7664

> <Gold.Goldscore.Internal.Vdw>
-0.3088

> <Gold.Goldscore.Internal.Torsion>
-0.4951

> <Gold.Goldscore.External.Vdw>
25.1488

> <Gold.Goldscore.Internal.HBond>
0.0000

> <Gold.Goldscore.External.HBond>
1.2258

> <Gold.Goldscore.Internal.Correction>
-0.7650

> <Gold.Goldscore.Hbonds>
donor molecule, donor type, donor heavy atom, donor atom, acceptor molecule, acceptor atom, score
      P1  H  2819  2826       L1     9  0.02
      L1  H     8    22       P1  2620  0.59

> <Gold.Goldscore.Internal.Vdw.Weighted>
-0.3088

> <Gold.Goldscore.Internal.Torsion.Weighted>
-0.4951

> <Gold.Goldscore.External.Vdw.Weighted>
34.5796

> <Gold.Goldscore.Internal.HBond.Weighted>
0.0000

> <Gold.Goldscore.External.HBond.Weighted>
1.2258

> <Gold.Goldscore.Internal.Correction.Weighted>
-0.7650

> <Gold.Rescore>
     Score     S(PLP)   S(hbond)     S(cho)   S(metal)  DE(clash)   DE(tors)     intcor
     33.81     -30.03       1.34       0.00       0.00       0.00       0.11       ----

> <Gold.PLP.Fitness>
33.8133

> <Gold.PLP.PLP>
-30.0332

> <Gold.PLP.part.hbond>
-1.1136

> <Gold.PLP.part.metal>
0.0000

> <Gold.PLP.part.buried>
-2.0675

> <Gold.PLP.part.nonpolar>
-29.0716

> <Gold.PLP.part.repulsive>
0.7749

> <Gold.PLP.ligand.clash>
0.0000

> <Gold.PLP.ligand.torsion>
0.1139

> <Gold.PLP.Chemscore.Hbond>
1.3360

> <Gold.PLP.Chemscore.CHOScore>
0.0000

> <Gold.PLP.Chemscore.Metal>
0.0000

> <Gold.Chemscore.Hbonds>
donor molecule, donor type, donor heavy atom, donor atom, acceptor molecule, acceptor atom, score
      L1  H     8    22       P1  2620  1.00
      P1  H  2819  2826       L1     9  0.57

> <Gold.PLP.Chemscore.Internal.Correction>
   9.000000E+99

#       Name:                CT1002167954
#       Creating user name   hitesit
#       Creation time:       Sun Apr 16 22:50:13 2023


#       File generated by GOLD software.
#

@<TRIPOS>MOLECULE
CT1002167954|ligand_prepared|mol2|1|dock5
    29    30     1
SMALL
NO_CHARGES


@<TRIPOS>ATOM
      1 C1          32.3593  19.0297  58.7722 C.3            1 RES1               0.0000
      2 C2          33.4681  17.9742  58.5842 C.ar           1 RES1               0.0000
      3 C3          31.5736  19.0633  57.4646 C.2            1 RES1               0.0000
      4 C4          31.5418  18.5796  59.9779 C.2            1 RES1               0.0000
      5 C5          32.8932  20.4521  59.0611 C.3            1 RES1               0.0000
      6 C6          34.6462  18.0450  59.3216 C.ar           1 RES1               0.0000
      7 C7          33.3263  16.9242  57.6808 C.ar           1 RES1               0.0000
      8 N8          30.3338  18.4952  57.4577 N.am           1 RES1               0.0000
      9 O9          32.0505  19.5456  56.4447 O.2            1 RES1               0.0000
     10 N10         30.2390  18.2099  59.7684 N.am           1 RES1               0.0000
     11 O11         32.0189  18.5259  61.1047 O.2            1 RES1               0.0000
     12 C12         31.8322  21.5369  58.9628 C.3            1 RES1               0.0000
     13 C13         35.6453  17.0988  59.1638 C.ar           1 RES1               0.0000
     14 C14         34.3268  15.9792  57.5244 C.ar           1 RES1               0.0000
     15 C15         29.6071  18.1180  58.5583 C.2            1 RES1               0.0000
     16 C16         35.4862  16.0652  58.2655 C.ar           1 RES1               0.0000
     17 O17         28.4495  17.7249  58.4453 O.2            1 RES1               0.0000
     18 H18         33.3237  20.4695  60.0699 H              1 RES1               0.0000
     19 H19         33.6969  20.6788  58.3496 H              1 RES1               0.0000
     20 H20         34.7903  18.8527  60.0314 H              1 RES1               0.0000
     21 H21         32.4232  16.8372  57.0863 H              1 RES1               0.0000
     22 H22         29.9075  18.3361  56.5503 H              1 RES1               0.0000
     23 H23         29.6894  17.9822  60.5909 H              1 RES1               0.0000
     24 H24         32.2597  22.5147  59.1745 H              1 RES1               0.0000
     25 H25         31.4003  21.5648  57.9646 H              1 RES1               0.0000
     26 H26         31.0293  21.3567  59.6747 H              1 RES1               0.0000
     27 H27         36.5564  17.1718  59.7484 H              1 RES1               0.0000
     28 H28         34.1975  15.1677  56.8159 H              1 RES1               0.0000
     29 H29         36.2688  15.3239  58.1424 H              1 RES1               0.0000
@<TRIPOS>BOND
    1    1    2 1     
    2    1    3 1     
    3    1    4 1     
    4    1    5 1     
    5    2    6 ar    
    6    2    7 ar    
    7    3    8 1     
    8    3    9 2     
    9    4   10 1     
   10    4   11 2     
   11    5   12 1     
   12    5   18 1     
   13    5   19 1     
   14    6   13 ar    
   15    6   20 1     
   16    7   14 ar    
   17    7   21 1     
   18    8   15 1     
   19    8   22 1     
   20   10   15 1     
   21   10   23 1     
   22   12   24 1     
   23   12   25 1     
   24   12   26 1     
   25   13   16 ar    
   26   13   27 1     
   27   14   16 ar    
   28   14   28 1     
   29   15   17 2     
   30   16   29 1     
@<TRIPOS>SUBSTRUCTURE
      1 RES1           1
@<TRIPOS>SET
DONOR_HYDROGENS      STATIC     ATOMS    <user>   **** ""
2 22 23
ATOM$RED        STATIC     ATOMS    COLORGROUP SYSTEM
2 22 23
@<TRIPOS>COMMENT
> <Gold.Version>
2022.3.0

> <Gold.Id.Protein>
unknown|3l9n_clean|pdb

> <Gold.Protein.RotatedTorsions>
[ 2826 2819 2817 2814 ] final  -92.13 input   59.97 | X-H torsion
[ 5145 5136 5135 5133 ] final   85.80 input   59.99 | X-H torsion
[ 1819 1812 1811 1809 ] final  -21.87 input   59.98 | X-H torsion
[ 2506 2497 2496 2494 ] final   51.21 input   59.98 | X-H torsion
[ 2581 2570 2569 2568 ] final   52.63 input   60.01 | X-H torsion
[ 3119 3112 3110 3107 ] final  139.86 input   60.01 | X-H torsion

> <Gold.Protein.ActiveResidues>
 THR48   LEU49   GLY50   THR51   GLY52   SER53   PHE54   GLY55   ARG56   VAL57  
 MET58   LEU59   TYR69   ALA70   MET71   LYS72   ILE73   LEU74   GLU91   LEU95  
 VAL104  LYS105  LEU106  MET118  VAL119  MET120  GLU121  TYR122  ALA123  PRO124 
 GLY125  GLY126  GLU127  MET128  PHE129  TYR164  ASP166  LYS168  PRO169  GLU170 
 ASN171  LEU172  MET173  ILE174  ASP175  LYS181  VAL182  THR183  ASP184  PHE185 
 GLY186  PHE187  THR201  PHE327  ASP328  TYR330 

> <Gold.Protein.RotatedAtoms>
   41.0991   11.2992   56.8020 H   0  0  0  0  0  0  0  0  0  0  0  0  # atno 1819 bound_to 1812
   26.7312   20.2316   52.6471 H   0  0  0  0  0  0  0  0  0  0  0  0  # atno 2506 bound_to 2497
   29.1941   27.9447   57.0682 H   0  0  0  0  0  0  0  0  0  0  0  0  # atno 2581 bound_to 2570
   29.0748   26.5215   57.9102 H   0  0  0  0  0  0  0  0  0  0  0  0  # atno 2582 bound_to 2570
   30.5660   27.1209   57.5025 H   0  0  0  0  0  0  0  0  0  0  0  0  # atno 2583 bound_to 2570
   30.8444   18.1342   54.2260 H   0  0  0  0  0  0  0  0  0  0  0  0  # atno 2826 bound_to 2819
   28.0707   28.3132   55.4368 H   0  0  0  0  0  0  0  0  0  0  0  0  # atno 3119 bound_to 3112
   38.8662   21.4291   61.2827 H   0  0  0  0  0  0  0  0  0  0  0  0  # atno 5145 bound_to 5136
   30.6650   18.0969   55.8431 LP  0  0  0  0  0  0  0  0  0  0  0  0  # atno 5479 bound_to 2819
   29.5360   18.8188   54.9099 LP  0  0  0  0  0  0  0  0  0  0  0  0  # atno 5480 bound_to 2819
   40.3954   21.2315   60.7631 LP  0  0  0  0  0  0  0  0  0  0  0  0  # atno 5483 bound_to 5136
   39.9738   22.5851   61.5735 LP  0  0  0  0  0  0  0  0  0  0  0  0  # atno 5484 bound_to 5136
   41.7824   10.0621   55.9950 LP  0  0  0  0  0  0  0  0  0  0  0  0  # atno 5511 bound_to 1812
   41.5290    9.9500   57.6043 LP  0  0  0  0  0  0  0  0  0  0  0  0  # atno 5512 bound_to 1812
   26.3243   21.3696   53.7367 LP  0  0  0  0  0  0  0  0  0  0  0  0  # atno 5533 bound_to 2497
   27.2124   21.7703   52.4262 LP  0  0  0  0  0  0  0  0  0  0  0  0  # atno 5534 bound_to 2497
   26.8817   28.8508   56.4085 LP  0  0  0  0  0  0  0  0  0  0  0  0  # atno 5545 bound_to 3112
   28.4340   28.8905   56.9139 LP  0  0  0  0  0  0  0  0  0  0  0  0  # atno 5546 bound_to 3112

> <Gold.Score>
     Fitness  S(hb_ext) S(vdw_ext)  S(hb_int)    S(int)      intcor
     35.48       1.59      25.28       0.00      -0.87      -0.76

> <Gold.Goldscore.Fitness>
35.4783

> <Gold.Goldscore.Internal.Vdw>
-1.0410

> <Gold.Goldscore.Internal.Torsion>
-0.5952

> <Gold.Goldscore.External.Vdw>
25.2763

> <Gold.Goldscore.Internal.HBond>
0.0000

> <Gold.Goldscore.External.HBond>
1.5947

> <Gold.Goldscore.Internal.Correction>
-0.7650

> <Gold.Goldscore.Hbonds>
donor molecule, donor type, donor heavy atom, donor atom, acceptor molecule, acceptor atom, score
      P1  H   936   949       L1    17  0.13
      L1  H     8    22       P1  2819  0.40

> <Gold.Goldscore.Internal.Vdw.Weighted>
-1.0410

> <Gold.Goldscore.Internal.Torsion.Weighted>
-0.5952

> <Gold.Goldscore.External.Vdw.Weighted>
34.7549

> <Gold.Goldscore.Internal.HBond.Weighted>
0.0000

> <Gold.Goldscore.External.HBond.Weighted>
1.5947

> <Gold.Goldscore.Internal.Correction.Weighted>
-0.7650

> <Gold.Rescore>
     Score     S(PLP)   S(hbond)     S(cho)   S(metal)  DE(clash)   DE(tors)     intcor
     34.48     -34.43       0.55       0.00       0.00       0.08       0.77       ----

> <Gold.PLP.Fitness>
34.4826

> <Gold.PLP.PLP>
-34.4339

> <Gold.PLP.part.hbond>
-2.0000

> <Gold.PLP.part.metal>
0.0000

> <Gold.PLP.part.buried>
1.7085

> <Gold.PLP.part.nonpolar>
-35.1657

> <Gold.PLP.part.repulsive>
1.0294

> <Gold.PLP.ligand.clash>
0.0771

> <Gold.PLP.ligand.torsion>
0.7686

> <Gold.PLP.Chemscore.Hbond>
0.5543

> <Gold.PLP.Chemscore.CHOScore>
0.0000

> <Gold.PLP.Chemscore.Metal>
0.0000

> <Gold.Chemscore.Hbonds>
donor molecule, donor type, donor heavy atom, donor atom, acceptor molecule, acceptor atom, score
      L1  H     8    22       P1  2819  0.82

> <Gold.PLP.Chemscore.Internal.Correction>
   9.000000E+99

#       Name:                CT1002167954
#       Creating user name   hitesit
#       Creation time:       Sun Apr 16 22:50:10 2023


#       File generated by GOLD software.
#

@<TRIPOS>MOLECULE
CT1002167954|ligand_prepared|mol2|1|dock1
    29    30     1
SMALL
NO_CHARGES


@<TRIPOS>ATOM
      1 C1          32.4307  18.3161  58.6869 C.3            1 RES1               0.0000
      2 C2          32.8674  16.8992  58.2621 C.ar           1 RES1               0.0000
      3 C3          33.4274  18.7711  59.7490 C.2            1 RES1               0.0000
      4 C4          32.4417  19.1638  57.4197 C.2            1 RES1               0.0000
      5 C5          31.0081  18.3770  59.2902 C.3            1 RES1               0.0000
      6 C6          34.2142  16.5951  58.0879 C.ar           1 RES1               0.0000
      7 C7          31.9368  15.8868  58.0438 C.ar           1 RES1               0.0000
      8 N8          34.3496  19.7092  59.3894 N.am           1 RES1               0.0000
      9 O9          33.4292  18.2854  60.8734 O.2            1 RES1               0.0000
     10 N10         33.3519  20.1849  57.3381 N.am           1 RES1               0.0000
     11 O11         31.6816  18.9462  56.4842 O.2            1 RES1               0.0000
     12 C12         30.6746  19.7102  59.9410 C.3            1 RES1               0.0000
     13 C13         34.6164  15.3242  57.7118 C.ar           1 RES1               0.0000
     14 C14         32.3412  14.6166  57.6675 C.ar           1 RES1               0.0000
     15 C15         34.3269  20.4767  58.2527 C.2            1 RES1               0.0000
     16 C16         33.6804  14.3341  57.5019 C.ar           1 RES1               0.0000
     17 O17         35.1439  21.3771  58.0832 O.2            1 RES1               0.0000
     18 H18         30.2786  18.1800  58.4949 H              1 RES1               0.0000
     19 H19         30.9085  17.5831  60.0407 H              1 RES1               0.0000
     20 H20         34.9650  17.3621  58.2462 H              1 RES1               0.0000
     21 H21         30.8778  16.0864  58.1671 H              1 RES1               0.0000
     22 H22         35.1283  19.8534  60.0244 H              1 RES1               0.0000
     23 H23         33.2974  20.7831  56.5198 H              1 RES1               0.0000
     24 H24         29.6656  19.6991  60.3478 H              1 RES1               0.0000
     25 H25         31.3652  19.9263  60.7534 H              1 RES1               0.0000
     26 H26         30.7391  20.5197  59.2168 H              1 RES1               0.0000
     27 H27         35.6715  15.1074  57.5814 H              1 RES1               0.0000
     28 H28         31.6010  13.8406  57.5028 H              1 RES1               0.0000
     29 H29         33.9957  13.3385  57.2077 H              1 RES1               0.0000
@<TRIPOS>BOND
    1    1    2 1     
    2    1    3 1     
    3    1    4 1     
    4    1    5 1     
    5    2    6 ar    
    6    2    7 ar    
    7    3    8 1     
    8    3    9 2     
    9    4   10 1     
   10    4   11 2     
   11    5   12 1     
   12    5   18 1     
   13    5   19 1     
   14    6   13 ar    
   15    6   20 1     
   16    7   14 ar    
   17    7   21 1     
   18    8   15 1     
   19    8   22 1     
   20   10   15 1     
   21   10   23 1     
   22   12   24 1     
   23   12   25 1     
   24   12   26 1     
   25   13   16 ar    
   26   13   27 1     
   27   14   16 ar    
   28   14   28 1     
   29   15   17 2     
   30   16   29 1     
@<TRIPOS>SUBSTRUCTURE
      1 RES1           1
@<TRIPOS>SET
DONOR_HYDROGENS      STATIC     ATOMS    <user>   **** ""
2 22 23
ATOM$RED        STATIC     ATOMS    COLORGROUP SYSTEM
2 22 23
@<TRIPOS>COMMENT
> <Gold.Version>
2022.3.0

> <Gold.Id.Protein>
unknown|3l9n_clean|pdb

> <Gold.Protein.RotatedTorsions>
[ 2826 2819 2817 2814 ] final  142.55 input   59.97 | X-H torsion
[ 5145 5136 5135 5133 ] final   74.23 input   59.99 | X-H torsion
[ 1819 1812 1811 1809 ] final  100.37 input   59.98 | X-H torsion
[ 2506 2497 2496 2494 ] final   50.52 input   59.98 | X-H torsion
[ 2581 2570 2569 2568 ] final   72.55 input   60.01 | X-H torsion
[ 3119 3112 3110 3107 ] final  -51.31 input   60.01 | X-H torsion

> <Gold.Protein.ActiveResidues>
 THR48   LEU49   GLY50   THR51   GLY52   SER53   PHE54   GLY55   ARG56   VAL57  
 MET58   LEU59   TYR69   ALA70   MET71   LYS72   ILE73   LEU74   GLU91   LEU95  
 VAL104  LYS105  LEU106  MET118  VAL119  MET120  GLU121  TYR122  ALA123  PRO124 
 GLY125  GLY126  GLU127  MET128  PHE129  TYR164  ASP166  LYS168  PRO169  GLU170 
 ASN171  LEU172  MET173  ILE174  ASP175  LYS181  VAL182  THR183  ASP184  PHE185 
 GLY186  PHE187  THR201  PHE327  ASP328  TYR330 

> <Gold.Protein.RotatedAtoms>
   41.5421    9.9252   57.5798 H   0  0  0  0  0  0  0  0  0  0  0  0  # atno 1819 bound_to 1812
   26.7250   20.2289   52.6562 H   0  0  0  0  0  0  0  0  0  0  0  0  # atno 2506 bound_to 2497
   28.9258   27.7819   57.1740 H   0  0  0  0  0  0  0  0  0  0  0  0  # atno 2581 bound_to 2570
   29.3769   26.3997   57.9708 H   0  0  0  0  0  0  0  0  0  0  0  0  # atno 2582 bound_to 2570
   30.5324   27.4053   57.3362 H   0  0  0  0  0  0  0  0  0  0  0  0  # atno 2583 bound_to 2570
   30.5907   18.1341   55.8700 H   0  0  0  0  0  0  0  0  0  0  0  0  # atno 2826 bound_to 2819
   27.6993   29.0541   57.1050 H   0  0  0  0  0  0  0  0  0  0  0  0  # atno 3119 bound_to 3112
   38.9325   21.2800   61.1880 H   0  0  0  0  0  0  0  0  0  0  0  0  # atno 5145 bound_to 5136
   29.5493   18.8188   54.8235 LP  0  0  0  0  0  0  0  0  0  0  0  0  # atno 5479 bound_to 2819
   30.9071   18.0970   54.2741 LP  0  0  0  0  0  0  0  0  0  0  0  0  # atno 5480 bound_to 2819
   40.5112   21.3759   60.8060 LP  0  0  0  0  0  0  0  0  0  0  0  0  # atno 5483 bound_to 5136
   39.7913   22.5908   61.6259 LP  0  0  0  0  0  0  0  0  0  0  0  0  # atno 5484 bound_to 5136
   41.0929   11.3027   56.8386 LP  0  0  0  0  0  0  0  0  0  0  0  0  # atno 5511 bound_to 1812
   41.7724   10.0930   55.9775 LP  0  0  0  0  0  0  0  0  0  0  0  0  # atno 5512 bound_to 1812
   26.3277   21.3804   53.7351 LP  0  0  0  0  0  0  0  0  0  0  0  0  # atno 5533 bound_to 2497
   27.2152   21.7622   52.4186 LP  0  0  0  0  0  0  0  0  0  0  0  0  # atno 5534 bound_to 2497
   28.6528   28.4540   55.9311 LP  0  0  0  0  0  0  0  0  0  0  0  0  # atno 5545 bound_to 3112
   27.0371   28.5406   55.7103 LP  0  0  0  0  0  0  0  0  0  0  0  0  # atno 5546 bound_to 3112

> <Gold.Score>
     Fitness  S(hb_ext) S(vdw_ext)  S(hb_int)    S(int)      intcor
     35.36       2.37      24.12       0.00      -0.18      -0.76

> <Gold.Goldscore.Fitness>
35.3642

> <Gold.Goldscore.Internal.Vdw>
-0.3930

> <Gold.Goldscore.Internal.Torsion>
-0.5507

> <Gold.Goldscore.External.Vdw>
24.1246

> <Gold.Goldscore.Internal.HBond>
0.0000

> <Gold.Goldscore.External.HBond>
2.3716

> <Gold.Goldscore.Internal.Correction>
-0.7650

> <Gold.Goldscore.Hbonds>
donor molecule, donor type, donor heavy atom, donor atom, acceptor molecule, acceptor atom, score
      P1  H  2819  2826       L1    11  0.19
      L1  H    10    23       P1  2601  1.00

> <Gold.Goldscore.Internal.Vdw.Weighted>
-0.3930

> <Gold.Goldscore.Internal.Torsion.Weighted>
-0.5507

> <Gold.Goldscore.External.Vdw.Weighted>
33.1713

> <Gold.Goldscore.Internal.HBond.Weighted>
0.0000

> <Gold.Goldscore.External.HBond.Weighted>
2.3716

> <Gold.Goldscore.Internal.Correction.Weighted>
-0.7650

> <Gold.Rescore>
     Score     S(PLP)   S(hbond)     S(cho)   S(metal)  DE(clash)   DE(tors)     intcor
     37.36     -34.21       1.49       0.00       0.00       0.00       0.65       ----

> <Gold.PLP.Fitness>
37.3628

> <Gold.PLP.PLP>
-34.2067

> <Gold.PLP.part.hbond>
-1.7373

> <Gold.PLP.part.metal>
0.0000

> <Gold.PLP.part.buried>
-1.0688

> <Gold.PLP.part.nonpolar>
-32.9529

> <Gold.PLP.part.repulsive>
0.4366

> <Gold.PLP.ligand.clash>
0.0000

> <Gold.PLP.ligand.torsion>
0.6540

> <Gold.PLP.Chemscore.Hbond>
1.4880

> <Gold.PLP.Chemscore.CHOScore>
0.0000

> <Gold.PLP.Chemscore.Metal>
0.0000

> <Gold.Chemscore.Hbonds>
donor molecule, donor type, donor heavy atom, donor atom, acceptor molecule, acceptor atom, score
      L1  H    10    23       P1  2601  1.00
      P1  H  2819  2826       L1    11  0.51

> <Gold.PLP.Chemscore.Internal.Correction>
   9.000000E+99

#       Name:                CT1002167954
#       Creating user name   hitesit
#       Creation time:       Sun Apr 16 22:50:14 2023


#       File generated by GOLD software.
#

@<TRIPOS>MOLECULE
CT1002167954|ligand_prepared|mol2|1|dock6
    29    30     1
SMALL
NO_CHARGES


@<TRIPOS>ATOM
      1 C1          33.0627  18.0008  58.4375 C.3            1 RES1               0.0000
      2 C2          31.7299  17.2250  58.4178 C.ar           1 RES1               0.0000
      3 C3          33.3146  18.3827  59.8932 C.2            1 RES1               0.0000
      4 C4          34.1112  17.0625  57.8502 C.2            1 RES1               0.0000
      5 C5          33.0468  19.2920  57.5866 C.3            1 RES1               0.0000
      6 C6          30.5243  17.8816  58.6464 C.ar           1 RES1               0.0000
      7 C7          31.6896  15.8554  58.1702 C.ar           1 RES1               0.0000
      8 N8          34.2831  17.6990  60.5673 N.am           1 RES1               0.0000
      9 O9          32.6467  19.2436  60.4527 O.2            1 RES1               0.0000
     10 N10         35.1150  16.6250  58.6740 N.am           1 RES1               0.0000
     11 O11         34.0677  16.6848  56.6858 O.2            1 RES1               0.0000
     12 C12         34.3988  19.9816  57.4934 C.3            1 RES1               0.0000
     13 C13         29.3219  17.1946  58.6254 C.ar           1 RES1               0.0000
     14 C14         30.4860  15.1703  58.1498 C.ar           1 RES1               0.0000
     15 C15         35.2311  16.8763  60.0140 C.2            1 RES1               0.0000
     16 C16         29.3018  15.8388  58.3766 C.ar           1 RES1               0.0000
     17 O17         36.1325  16.4023  60.6997 O.2            1 RES1               0.0000
     18 H18         32.7067  19.0432  56.5738 H              1 RES1               0.0000
     19 H19         32.3226  19.9922  58.0209 H              1 RES1               0.0000
     20 H20         30.5206  18.9480  58.8463 H              1 RES1               0.0000
     21 H21         32.6090  15.3087  57.9901 H              1 RES1               0.0000
     22 H22         34.3044  17.8095  61.5761 H              1 RES1               0.0000
     23 H23         35.8431  16.0598  58.2490 H              1 RES1               0.0000
     24 H24         34.3317  20.8814  56.8856 H              1 RES1               0.0000
     25 H25         34.7558  20.2657  58.4811 H              1 RES1               0.0000
     26 H26         35.1377  19.3223  57.0426 H              1 RES1               0.0000
     27 H27         28.3927  17.7251  58.8059 H              1 RES1               0.0000
     28 H28         30.4751  14.1031  57.9542 H              1 RES1               0.0000
     29 H29         28.3597  15.3009  58.3598 H              1 RES1               0.0000
@<TRIPOS>BOND
    1    1    2 1     
    2    1    3 1     
    3    1    4 1     
    4    1    5 1     
    5    2    6 ar    
    6    2    7 ar    
    7    3    8 1     
    8    3    9 2     
    9    4   10 1     
   10    4   11 2     
   11    5   12 1     
   12    5   18 1     
   13    5   19 1     
   14    6   13 ar    
   15    6   20 1     
   16    7   14 ar    
   17    7   21 1     
   18    8   15 1     
   19    8   22 1     
   20   10   15 1     
   21   10   23 1     
   22   12   24 1     
   23   12   25 1     
   24   12   26 1     
   25   13   16 ar    
   26   13   27 1     
   27   14   16 ar    
   28   14   28 1     
   29   15   17 2     
   30   16   29 1     
@<TRIPOS>SUBSTRUCTURE
      1 RES1           1
@<TRIPOS>SET
DONOR_HYDROGENS      STATIC     ATOMS    <user>   **** ""
2 22 23
ATOM$RED        STATIC     ATOMS    COLORGROUP SYSTEM
2 22 23
@<TRIPOS>COMMENT
> <Gold.Version>
2022.3.0

> <Gold.Id.Protein>
unknown|3l9n_clean|pdb

> <Gold.Protein.RotatedTorsions>
[ 2826 2819 2817 2814 ] final -156.87 input   59.97 | X-H torsion
[ 5145 5136 5135 5133 ] final  -51.56 input   59.99 | X-H torsion
[ 1819 1812 1811 1809 ] final -157.85 input   59.98 | X-H torsion
[ 2506 2497 2496 2494 ] final  166.60 input   59.98 | X-H torsion
[ 2581 2570 2569 2568 ] final   95.74 input   60.01 | X-H torsion
[ 3119 3112 3110 3107 ] final   87.73 input   60.01 | X-H torsion

> <Gold.Protein.ActiveResidues>
 THR48   LEU49   GLY50   THR51   GLY52   SER53   PHE54   GLY55   ARG56   VAL57  
 MET58   LEU59   TYR69   ALA70   MET71   LYS72   ILE73   LEU74   GLU91   LEU95  
 VAL104  LYS105  LEU106  MET118  VAL119  MET120  GLU121  TYR122  ALA123  PRO124 
 GLY125  GLY126  GLU127  MET128  PHE129  TYR164  ASP166  LYS168  PRO169  GLU170 
 ASN171  LEU172  MET173  ILE174  ASP175  LYS181  VAL182  THR183  ASP184  PHE185 
 GLY186  PHE187  THR201  PHE327  ASP328  TYR330 

> <Gold.Protein.RotatedAtoms>
   41.8346    9.8644   56.1576 H   0  0  0  0  0  0  0  0  0  0  0  0  # atno 1819 bound_to 1812
   27.2243   21.7113   52.3798 H   0  0  0  0  0  0  0  0  0  0  0  0  # atno 2506 bound_to 2497
   28.7186   27.5059   57.3442 H   0  0  0  0  0  0  0  0  0  0  0  0  # atno 2581 bound_to 2570
   29.7611   26.3784   57.9691 H   0  0  0  0  0  0  0  0  0  0  0  0  # atno 2582 bound_to 2570
   30.3556   27.7026   57.1677 H   0  0  0  0  0  0  0  0  0  0  0  0  # atno 2583 bound_to 2570
   31.1458   17.8825   55.1486 H   0  0  0  0  0  0  0  0  0  0  0  0  # atno 2826 bound_to 2819
   27.2625   28.4388   55.5224 H   0  0  0  0  0  0  0  0  0  0  0  0  # atno 3119 bound_to 3112
   40.5527   21.4551   60.8390 H   0  0  0  0  0  0  0  0  0  0  0  0  # atno 5145 bound_to 5136
   29.7988   18.5993   55.7145 LP  0  0  0  0  0  0  0  0  0  0  0  0  # atno 5479 bound_to 2819
   30.0986   18.5698   54.1096 LP  0  0  0  0  0  0  0  0  0  0  0  0  # atno 5480 bound_to 2819
   39.6988   22.5808   61.6458 LP  0  0  0  0  0  0  0  0  0  0  0  0  # atno 5483 bound_to 5136
   38.9722   21.2096   61.1375 LP  0  0  0  0  0  0  0  0  0  0  0  0  # atno 5484 bound_to 5136
   41.4179   10.1667   57.7016 LP  0  0  0  0  0  0  0  0  0  0  0  0  # atno 5511 bound_to 1812
   41.1529   11.2902   56.5465 LP  0  0  0  0  0  0  0  0  0  0  0  0  # atno 5512 bound_to 1812
   26.6921   20.2091   52.7082 LP  0  0  0  0  0  0  0  0  0  0  0  0  # atno 5533 bound_to 2497
   26.3480   21.4406   53.7239 LP  0  0  0  0  0  0  0  0  0  0  0  0  # atno 5534 bound_to 2497
   27.3996   29.0512   57.0235 LP  0  0  0  0  0  0  0  0  0  0  0  0  # atno 5545 bound_to 3112
   28.7305   28.5635   56.2127 LP  0  0  0  0  0  0  0  0  0  0  0  0  # atno 5546 bound_to 3112

> <Gold.Score>
     Fitness  S(hb_ext) S(vdw_ext)  S(hb_int)    S(int)      intcor
     35.29       0.00      26.90       0.00      -1.69      -0.76

> <Gold.Goldscore.Fitness>
35.2934

> <Gold.Goldscore.Internal.Vdw>
-2.0388

> <Gold.Goldscore.Internal.Torsion>
-0.4179

> <Gold.Goldscore.External.Vdw>
26.8983

> <Gold.Goldscore.Internal.HBond>
0.0000

> <Gold.Goldscore.External.HBond>
0.0000

> <Gold.Goldscore.Internal.Correction>
-0.7650

> <Gold.Goldscore.Internal.Vdw.Weighted>
-2.0388

> <Gold.Goldscore.Internal.Torsion.Weighted>
-0.4179

> <Gold.Goldscore.External.Vdw.Weighted>
36.9852

> <Gold.Goldscore.Internal.HBond.Weighted>
0.0000

> <Gold.Goldscore.External.HBond.Weighted>
0.0000

> <Gold.Goldscore.Internal.Correction.Weighted>
-0.7650

> <Gold.Rescore>
     Score     S(PLP)   S(hbond)     S(cho)   S(metal)  DE(clash)   DE(tors)     intcor
     25.36     -26.93       0.00       0.00       0.00       1.12       0.22       ----

> <Gold.PLP.Fitness>
25.3633

> <Gold.PLP.PLP>
-26.9290

> <Gold.PLP.part.hbond>
-0.7920

> <Gold.PLP.part.metal>
0.0000

> <Gold.PLP.part.buried>
8.0035

> <Gold.PLP.part.nonpolar>
-34.9025

> <Gold.PLP.part.repulsive>
0.1788

> <Gold.PLP.ligand.clash>
1.1165

> <Gold.PLP.ligand.torsion>
0.2246

> <Gold.PLP.Chemscore.Hbond>
0.0000

> <Gold.PLP.Chemscore.CHOScore>
0.0000

> <Gold.PLP.Chemscore.Metal>
0.0000

> <Gold.PLP.Chemscore.Internal.Correction>
   9.000000E+99

#       Name:                CT1002167954
#       Creating user name   hitesit
#       Creation time:       Sun Apr 16 22:50:17 2023


#       File generated by GOLD software.
#

@<TRIPOS>MOLECULE
CT1002167954|ligand_prepared|mol2|1|dock8
    29    30     1
SMALL
NO_CHARGES


@<TRIPOS>ATOM
      1 C1          33.5179  18.3888  58.9440 C.3            1 RES1               0.0000
      2 C2          32.2731  17.4831  58.8505 C.ar           1 RES1               0.0000
      3 C3          34.3397  17.8674  60.1192 C.2            1 RES1               0.0000
      4 C4          34.2236  18.2845  57.5965 C.2            1 RES1               0.0000
      5 C5          33.1892  19.8786  59.1971 C.3            1 RES1               0.0000
      6 C6          32.3027  16.3135  58.0969 C.ar           1 RES1               0.0000
      7 C7          31.0908  17.8021  59.5131 C.ar           1 RES1               0.0000
      8 N8          35.4828  17.1799  59.8352 N.am           1 RES1               0.0000
      9 O9          33.9699  18.0229  61.2765 O.2            1 RES1               0.0000
     10 N10         35.4641  17.7032  57.5646 N.am           1 RES1               0.0000
     11 O11         33.7095  18.6854  56.5596 O.2            1 RES1               0.0000
     12 C12         34.3760  20.8096  59.0051 C.3            1 RES1               0.0000
     13 C13         31.1917  15.4909  58.0113 C.ar           1 RES1               0.0000
     14 C14         29.9808  16.9782  59.4259 C.ar           1 RES1               0.0000
     15 C15         36.1125  17.1185  58.6181 C.2            1 RES1               0.0000
     16 C16         30.0302  15.8224  58.6759 C.ar           1 RES1               0.0000
     17 O17         37.2031  16.5672  58.4994 O.2            1 RES1               0.0000
     18 H18         32.3867  20.1840  58.5144 H              1 RES1               0.0000
     19 H19         32.8165  19.9886  60.2230 H              1 RES1               0.0000
     20 H20         33.2071  16.0375  57.5650 H              1 RES1               0.0000
     21 H21         31.0285  18.7069  60.1080 H              1 RES1               0.0000
     22 H22         35.9087  16.6637  60.5984 H              1 RES1               0.0000
     23 H23         35.9491  17.7068  56.6730 H              1 RES1               0.0000
     24 H24         34.0908  21.8422  59.1949 H              1 RES1               0.0000
     25 H25         35.1838  20.5504  59.6863 H              1 RES1               0.0000
     26 H26         34.7565  20.7446  57.9878 H              1 RES1               0.0000
     27 H27         31.2353  14.5831  57.4186 H              1 RES1               0.0000
     28 H28         29.0686  17.2433  59.9501 H              1 RES1               0.0000
     29 H29         29.1601  15.1777  58.6089 H              1 RES1               0.0000
@<TRIPOS>BOND
    1    1    2 1     
    2    1    3 1     
    3    1    4 1     
    4    1    5 1     
    5    2    6 ar    
    6    2    7 ar    
    7    3    8 1     
    8    3    9 2     
    9    4   10 1     
   10    4   11 2     
   11    5   12 1     
   12    5   18 1     
   13    5   19 1     
   14    6   13 ar    
   15    6   20 1     
   16    7   14 ar    
   17    7   21 1     
   18    8   15 1     
   19    8   22 1     
   20   10   15 1     
   21   10   23 1     
   22   12   24 1     
   23   12   25 1     
   24   12   26 1     
   25   13   16 ar    
   26   13   27 1     
   27   14   16 ar    
   28   14   28 1     
   29   15   17 2     
   30   16   29 1     
@<TRIPOS>SUBSTRUCTURE
      1 RES1           1
@<TRIPOS>SET
DONOR_HYDROGENS      STATIC     ATOMS    <user>   **** ""
2 22 23
ATOM$RED        STATIC     ATOMS    COLORGROUP SYSTEM
2 22 23
@<TRIPOS>COMMENT
> <Gold.Version>
2022.3.0

> <Gold.Id.Protein>
unknown|3l9n_clean|pdb

> <Gold.Protein.RotatedTorsions>
[ 2826 2819 2817 2814 ] final   56.35 input   59.97 | X-H torsion
[ 5145 5136 5135 5133 ] final   75.55 input   59.99 | X-H torsion
[ 1819 1812 1811 1809 ] final  -76.88 input   59.98 | X-H torsion
[ 2506 2497 2496 2494 ] final  -86.82 input   59.98 | X-H torsion
[ 2581 2570 2569 2568 ] final  -71.41 input   60.01 | X-H torsion
[ 3119 3112 3110 3107 ] final -134.92 input   60.01 | X-H torsion

> <Gold.Protein.ActiveResidues>
 THR48   LEU49   GLY50   THR51   GLY52   SER53   PHE54   GLY55   ARG56   VAL57  
 MET58   LEU59   TYR69   ALA70   MET71   LYS72   ILE73   LEU74   GLU91   LEU95  
 VAL104  LYS105  LEU106  MET118  VAL119  MET120  GLU121  TYR122  ALA123  PRO124 
 GLY125  GLY126  GLU127  MET128  PHE129  TYR164  ASP166  LYS168  PRO169  GLU170 
 ASN171  LEU172  MET173  ILE174  ASP175  LYS181  VAL182  THR183  ASP184  PHE185 
 GLY186  PHE187  THR201  PHE327  ASP328  TYR330 

> <Gold.Protein.RotatedAtoms>
   41.3756   10.9847   56.0452 H   0  0  0  0  0  0  0  0  0  0  0  0  # atno 1819 bound_to 1812
   26.4312   21.6306   53.6516 H   0  0  0  0  0  0  0  0  0  0  0  0  # atno 2506 bound_to 2497
   30.5589   27.0637   57.5366 H   0  0  0  0  0  0  0  0  0  0  0  0  # atno 2581 bound_to 2570
   29.2560   27.9671   57.0520 H   0  0  0  0  0  0  0  0  0  0  0  0  # atno 2582 bound_to 2570
   29.0205   26.5570   57.8919 H   0  0  0  0  0  0  0  0  0  0  0  0  # atno 2583 bound_to 2570
   29.5880   18.7470   55.3637 H   0  0  0  0  0  0  0  0  0  0  0  0  # atno 2826 bound_to 2819
   28.7056   28.6767   56.4713 H   0  0  0  0  0  0  0  0  0  0  0  0  # atno 3119 bound_to 3112
   38.9233   21.2961   61.1988 H   0  0  0  0  0  0  0  0  0  0  0  0  # atno 5145 bound_to 5136
   30.4776   18.3595   54.0572 LP  0  0  0  0  0  0  0  0  0  0  0  0  # atno 5479 bound_to 2819
   30.9884   17.9391   55.5502 LP  0  0  0  0  0  0  0  0  0  0  0  0  # atno 5480 bound_to 2819
   40.4996   21.3586   60.8003 LP  0  0  0  0  0  0  0  0  0  0  0  0  # atno 5483 bound_to 5136
   39.8123   22.5919   61.6207 LP  0  0  0  0  0  0  0  0  0  0  0  0  # atno 5484 bound_to 5136
   41.8528    9.5817   56.7181 LP  0  0  0  0  0  0  0  0  0  0  0  0  # atno 5511 bound_to 1812
   41.1802   10.7471   57.6433 LP  0  0  0  0  0  0  0  0  0  0  0  0  # atno 5512 bound_to 1812
   27.2631   21.5339   52.2564 LP  0  0  0  0  0  0  0  0  0  0  0  0  # atno 5533 bound_to 2497
   26.5757   20.1973   52.8949 LP  0  0  0  0  0  0  0  0  0  0  0  0  # atno 5534 bound_to 2497
   27.5119   28.3626   55.4114 LP  0  0  0  0  0  0  0  0  0  0  0  0  # atno 5545 bound_to 3112
   27.1640   29.0124   56.8685 LP  0  0  0  0  0  0  0  0  0  0  0  0  # atno 5546 bound_to 3112

> <Gold.Score>
     Fitness  S(hb_ext) S(vdw_ext)  S(hb_int)    S(int)      intcor
     35.07       0.00      25.76       0.00      -0.35      -0.76

> <Gold.Goldscore.Fitness>
35.0651

> <Gold.Goldscore.Internal.Vdw>
-0.5303

> <Gold.Goldscore.Internal.Torsion>
-0.5868

> <Gold.Goldscore.External.Vdw>
25.7580

> <Gold.Goldscore.Internal.HBond>
0.0000

> <Gold.Goldscore.External.HBond>
0.0000

> <Gold.Goldscore.Internal.Correction>
-0.7650

> <Gold.Goldscore.Internal.Vdw.Weighted>
-0.5303

> <Gold.Goldscore.Internal.Torsion.Weighted>
-0.5868

> <Gold.Goldscore.External.Vdw.Weighted>
35.4173

> <Gold.Goldscore.Internal.HBond.Weighted>
0.0000

> <Gold.Goldscore.External.HBond.Weighted>
0.0000

> <Gold.Goldscore.Internal.Correction.Weighted>
-0.7650

> <Gold.Rescore>
     Score     S(PLP)   S(hbond)     S(cho)   S(metal)  DE(clash)   DE(tors)     intcor
     27.48     -27.67       0.00       0.00       0.00       0.00       0.10       ----

> <Gold.PLP.Fitness>
27.4804

> <Gold.PLP.PLP>
-27.6732

> <Gold.PLP.part.hbond>
0.0000

> <Gold.PLP.part.metal>
0.0000

> <Gold.PLP.part.buried>
-0.3650

> <Gold.PLP.part.nonpolar>
-32.2209

> <Gold.PLP.part.repulsive>
4.6263

> <Gold.PLP.ligand.clash>
0.0000

> <Gold.PLP.ligand.torsion>
0.0964

> <Gold.PLP.Chemscore.Hbond>
0.0000

> <Gold.PLP.Chemscore.CHOScore>
0.0000

> <Gold.PLP.Chemscore.Metal>
0.0000

> <Gold.PLP.Chemscore.Internal.Correction>
   9.000000E+99

#       Name:                CT1002167954
#       Creating user name   hitesit
#       Creation time:       Sun Apr 16 22:50:19 2023


#       File generated by GOLD software.
#

@<TRIPOS>MOLECULE
CT1002167954|ligand_prepared|mol2|1|dock10
    29    30     1
SMALL
NO_CHARGES


@<TRIPOS>ATOM
      1 C1          31.6173  20.2330  59.0244 C.3            1 RES1               0.0000
      2 C2          31.1417  21.6841  59.2408 C.ar           1 RES1               0.0000
      3 C3          30.8612  19.3786  60.0376 C.2            1 RES1               0.0000
      4 C4          31.3067  19.8946  57.5705 C.2            1 RES1               0.0000
      5 C5          33.1343  20.0327  59.2479 C.3            1 RES1               0.0000
      6 C6          31.7758  22.7413  58.5952 C.ar           1 RES1               0.0000
      7 C7          30.0706  21.9804  60.0795 C.ar           1 RES1               0.0000
      8 N8          29.8552  18.5855  59.5698 N.am           1 RES1               0.0000
      9 O9          31.1175  19.4298  61.2343 O.2            1 RES1               0.0000
     10 N10         30.3702  18.9253  57.3228 N.am           1 RES1               0.0000
     11 O11         31.8523  20.4703  56.6371 O.2            1 RES1               0.0000
     12 C12         33.5861  18.5858  59.1275 C.3            1 RES1               0.0000
     13 C13         31.3526  24.0473  58.7789 C.ar           1 RES1               0.0000
     14 C14         29.6491  23.2871  60.2621 C.ar           1 RES1               0.0000
     15 C15         29.6082  18.2771  58.2562 C.2            1 RES1               0.0000
     16 C16         30.2888  24.3210  59.6120 C.ar           1 RES1               0.0000
     17 O17         28.7472  17.4564  57.9523 O.2            1 RES1               0.0000
     18 H18         33.6821  20.6359  58.5134 H              1 RES1               0.0000
     19 H19         33.3958  20.4022  60.2471 H              1 RES1               0.0000
     20 H20         32.6162  22.5455  57.9377 H              1 RES1               0.0000
     21 H21         29.5530  21.1831  60.6021 H              1 RES1               0.0000
     22 H22         29.2286  18.1848  60.2605 H              1 RES1               0.0000
     23 H23         30.2282  18.6626  56.3526 H              1 RES1               0.0000
     24 H24         34.6581  18.5014  59.2931 H              1 RES1               0.0000
     25 H25         33.0797  17.9613  59.8605 H              1 RES1               0.0000
     26 H26         33.3643  18.1936  58.1371 H              1 RES1               0.0000
     27 H27         31.8603  24.8575  58.2661 H              1 RES1               0.0000
     28 H28         28.8118  23.4980  60.9192 H              1 RES1               0.0000
     29 H29         29.9572  25.3441  59.7555 H              1 RES1               0.0000
@<TRIPOS>BOND
    1    1    2 1     
    2    1    3 1     
    3    1    4 1     
    4    1    5 1     
    5    2    6 ar    
    6    2    7 ar    
    7    3    8 1     
    8    3    9 2     
    9    4   10 1     
   10    4   11 2     
   11    5   12 1     
   12    5   18 1     
   13    5   19 1     
   14    6   13 ar    
   15    6   20 1     
   16    7   14 ar    
   17    7   21 1     
   18    8   15 1     
   19    8   22 1     
   20   10   15 1     
   21   10   23 1     
   22   12   24 1     
   23   12   25 1     
   24   12   26 1     
   25   13   16 ar    
   26   13   27 1     
   27   14   16 ar    
   28   14   28 1     
   29   15   17 2     
   30   16   29 1     
@<TRIPOS>SUBSTRUCTURE
      1 RES1           1
@<TRIPOS>SET
DONOR_HYDROGENS      STATIC     ATOMS    <user>   **** ""
2 22 23
ATOM$RED        STATIC     ATOMS    COLORGROUP SYSTEM
2 22 23
@<TRIPOS>COMMENT
> <Gold.Version>
2022.3.0

> <Gold.Id.Protein>
unknown|3l9n_clean|pdb

> <Gold.Protein.RotatedTorsions>
[ 2826 2819 2817 2814 ] final  -70.37 input   59.97 | X-H torsion
[ 5145 5136 5135 5133 ] final   81.93 input   59.99 | X-H torsion
[ 1819 1812 1811 1809 ] final   -7.35 input   59.98 | X-H torsion
[ 2506 2497 2496 2494 ] final  -19.68 input   59.98 | X-H torsion
[ 2581 2570 2569 2568 ] final  -72.35 input   60.01 | X-H torsion
[ 3119 3112 3110 3107 ] final   12.34 input   60.01 | X-H torsion

> <Gold.Protein.ActiveResidues>
 THR48   LEU49   GLY50   THR51   GLY52   SER53   PHE54   GLY55   ARG56   VAL57  
 MET58   LEU59   TYR69   ALA70   MET71   LYS72   ILE73   LEU74   GLU91   LEU95  
 VAL104  LYS105  LEU106  MET118  VAL119  MET120  GLU121  TYR122  ALA123  PRO124 
 GLY125  GLY126  GLU127  MET128  PHE129  TYR164  ASP166  LYS168  PRO169  GLU170 
 ASN171  LEU172  MET173  ILE174  ASP175  LYS181  VAL182  THR183  ASP184  PHE185 
 GLY186  PHE187  THR201  PHE327  ASP328  TYR330 

> <Gold.Protein.RotatedAtoms>
   41.0744   11.2556   57.0333 H   0  0  0  0  0  0  0  0  0  0  0  0  # atno 1819 bound_to 1812
   26.2658   20.6135   53.5507 H   0  0  0  0  0  0  0  0  0  0  0  0  # atno 2506 bound_to 2497
   30.5565   27.0503   57.5446 H   0  0  0  0  0  0  0  0  0  0  0  0  # atno 2581 bound_to 2570
   29.2706   27.9718   57.0487 H   0  0  0  0  0  0  0  0  0  0  0  0  # atno 2582 bound_to 2570
   29.0082   26.5657   57.8872 H   0  0  0  0  0  0  0  0  0  0  0  0  # atno 2583 bound_to 2570
   30.5691   18.3029   54.0822 H   0  0  0  0  0  0  0  0  0  0  0  0  # atno 2826 bound_to 2819
   26.9235   28.8933   56.5164 H   0  0  0  0  0  0  0  0  0  0  0  0  # atno 3119 bound_to 3112
   38.8845   21.3776   61.2512 H   0  0  0  0  0  0  0  0  0  0  0  0  # atno 5145 bound_to 5136
   30.9235   17.9685   55.6349 LP  0  0  0  0  0  0  0  0  0  0  0  0  # atno 5479 bound_to 2819
   29.5546   18.7774   55.2629 LP  0  0  0  0  0  0  0  0  0  0  0  0  # atno 5480 bound_to 2819
   40.4373   21.2776   60.7755 LP  0  0  0  0  0  0  0  0  0  0  0  0  # atno 5483 bound_to 5136
   39.9136   22.5908   61.5927 LP  0  0  0  0  0  0  0  0  0  0  0  0  # atno 5484 bound_to 5136
   41.7101   10.2703   55.9046 LP  0  0  0  0  0  0  0  0  0  0  0  0  # atno 5511 bound_to 1812
   41.6261    9.7857   57.4618 LP  0  0  0  0  0  0  0  0  0  0  0  0  # atno 5512 bound_to 1812
   26.8765   22.0459   53.0783 LP  0  0  0  0  0  0  0  0  0  0  0  0  # atno 5533 bound_to 2497
   27.1289   20.7094   52.1746 LP  0  0  0  0  0  0  0  0  0  0  0  0  # atno 5534 bound_to 2497
   28.5185   28.8477   56.8343 LP  0  0  0  0  0  0  0  0  0  0  0  0  # atno 5545 bound_to 3112
   27.9531   28.3090   55.4002 LP  0  0  0  0  0  0  0  0  0  0  0  0  # atno 5546 bound_to 3112

> <Gold.Score>
     Fitness  S(hb_ext) S(vdw_ext)  S(hb_int)    S(int)      intcor
     31.78       2.39      22.61       0.00      -1.70      -0.76

> <Gold.Goldscore.Fitness>
31.7845

> <Gold.Goldscore.Internal.Vdw>
-2.0612

> <Gold.Goldscore.Internal.Torsion>
-0.3945

> <Gold.Goldscore.External.Vdw>
22.6109

> <Gold.Goldscore.Internal.HBond>
0.0000

> <Gold.Goldscore.External.HBond>
2.3917

> <Gold.Goldscore.Internal.Correction>
-0.7585

> <Gold.Goldscore.Hbonds>
donor molecule, donor type, donor heavy atom, donor atom, acceptor molecule, acceptor atom, score
      P1  H   936   949       L1    17  0.07
      L1  H    10    23       P1  2819  1.00

> <Gold.Goldscore.Internal.Vdw.Weighted>
-2.0612

> <Gold.Goldscore.Internal.Torsion.Weighted>
-0.3945

> <Gold.Goldscore.External.Vdw.Weighted>
31.0900

> <Gold.Goldscore.Internal.HBond.Weighted>
0.0000

> <Gold.Goldscore.External.HBond.Weighted>
2.3917

> <Gold.Goldscore.Internal.Correction.Weighted>
-0.7585

> <Gold.Rescore>
     Score     S(PLP)   S(hbond)     S(cho)   S(metal)  DE(clash)   DE(tors)     intcor
     19.33     -18.88       0.73       0.00       0.00       0.05       0.85       ----

> <Gold.PLP.Fitness>
19.3337

> <Gold.PLP.PLP>
-18.8786

> <Gold.PLP.part.hbond>
-1.8704

> <Gold.PLP.part.metal>
0.0000

> <Gold.PLP.part.buried>
7.4691

> <Gold.PLP.part.nonpolar>
-27.5051

> <Gold.PLP.part.repulsive>
2.6830

> <Gold.PLP.ligand.clash>
0.0549

> <Gold.PLP.ligand.torsion>
0.8456

> <Gold.PLP.Chemscore.Hbond>
0.7337

> <Gold.PLP.Chemscore.CHOScore>
0.0000

> <Gold.PLP.Chemscore.Metal>
0.0000

> <Gold.Chemscore.Hbonds>
donor molecule, donor type, donor heavy atom, donor atom, acceptor molecule, acceptor atom, score
      L1  H    10    23       P1  2819  0.78

> <Gold.PLP.Chemscore.Internal.Correction>
   9.000000E+99

