#       Name:                GA Fitting Points
#       Creating user name   hitesit
#       Creation time:       Sun Apr 16 22:50:04 2023


#       Fitting Points Used by GA Software.
#

@<TRIPOS>MOLECULE
GA Fitting Points
  9129    0    0
SMALL
NO_CHARGES


@<TRIPOS>ATOM
      1 ****        21.7500  20.0000  63.2500 Du        
      2 ****        22.0000  19.2500  62.5000 Du        
      3 ****        22.0000  19.2500  62.7500 Du        
      4 ****        22.0000  19.5000  62.5000 Du        
      5 ****        22.0000  19.5000  62.7500 Du        
      6 ****        22.0000  19.5000  63.0000 Du        
      7 ****        22.0000  19.5000  63.2500 Du        
      8 ****        22.0000  19.7500  62.5000 Du        
      9 ****        22.0000  19.7500  62.7500 Du        
     10 ****        22.0000  19.7500  63.0000 Du        
     11 ****        22.0000  19.7500  63.2500 Du        
     12 ****        22.0000  19.7500  63.5000 Du        
     13 ****        22.0000  19.7500  63.7500 Du        
     14 ****        22.0000  20.0000  62.7500 Du        
     15 ****        22.0000  20.0000  63.0000 Du        
     16 ****        22.0000  20.0000  63.2500 Du        
     17 ****        22.0000  20.0000  63.5000 Du        
     18 ****        22.0000  20.0000  63.7500 Du        
     19 ****        22.0000  20.2500  62.7500 Du        
     20 ****        22.0000  20.2500  63.0000 Du        
     21 ****        22.0000  20.2500  63.2500 Du        
     22 ****        22.0000  20.2500  63.5000 Du        
     23 ****        22.0000  20.2500  63.7500 Du        
     24 ****        22.0000  20.2500  64.0000 Du        
     25 ****        22.0000  20.5000  62.7500 Du        
     26 ****        22.0000  20.5000  63.0000 Du        
     27 ****        22.0000  20.5000  63.2500 Du        
     28 ****        22.0000  20.5000  63.5000 Du        
     29 ****        22.0000  20.5000  63.7500 Du        
     30 ****        22.0000  20.7500  63.0000 Du        
     31 ****        22.0000  20.7500  63.2500 Du        
     32 ****        22.0000  20.7500  63.5000 Du        
     33 ****        22.0000  20.7500  63.7500 Du        
     34 ****        22.0000  21.0000  63.0000 Du        
     35 ****        22.0000  21.0000  63.2500 Du        
     36 ****        22.0000  21.0000  63.5000 Du        
     37 ****        22.0000  22.2500  62.5000 Du        
     38 ****        22.0000  22.2500  62.7500 Du        
     39 ****        22.0000  22.2500  63.0000 Du        
     40 ****        22.0000  22.5000  62.2500 Du        
     41 ****        22.0000  22.5000  62.5000 Du        
     42 ****        22.0000  22.5000  62.7500 Du        
     43 ****        22.0000  22.7500  62.0000 Du        
     44 ****        22.0000  22.7500  62.2500 Du        
     45 ****        22.0000  22.7500  62.5000 Du        
     46 ****        22.0000  22.7500  62.7500 Du        
     47 ****        22.0000  23.0000  61.7500 Du        
     48 ****        22.2500  18.7500  62.0000 Du        
     49 ****        22.2500  18.7500  62.2500 Du        
     50 ****        22.2500  19.0000  62.0000 Du        
     51 ****        22.2500  19.0000  62.2500 Du        
     52 ****        22.2500  19.0000  62.5000 Du        
     53 ****        22.2500  19.0000  62.7500 Du        
     54 ****        22.2500  19.2500  62.2500 Du        
     55 ****        22.2500  19.2500  62.5000 Du        
     56 ****        22.2500  19.2500  62.7500 Du        
     57 ****        22.2500  19.2500  63.0000 Du        
     58 ****        22.2500  19.2500  63.2500 Du        
     59 ****        22.2500  19.2500  63.5000 Du        
     60 ****        22.2500  19.5000  62.2500 Du        
     61 ****        22.2500  19.5000  62.5000 Du        
     62 ****        22.2500  19.5000  62.7500 Du        
     63 ****        22.2500  19.5000  63.0000 Du        
     64 ****        22.2500  19.5000  63.2500 Du        
     65 ****        22.2500  19.5000  63.5000 Du        
     66 ****        22.2500  19.5000  63.7500 Du        
     67 ****        22.2500  19.7500  62.5000 Du        
     68 ****        22.2500  19.7500  62.7500 Du        
     69 ****        22.2500  19.7500  63.0000 Du        
     70 ****        22.2500  19.7500  63.2500 Du        
     71 ****        22.2500  19.7500  63.5000 Du        
     72 ****        22.2500  19.7500  63.7500 Du        
     73 ****        22.2500  19.7500  64.0000 Du        
     74 ****        22.2500  20.0000  62.5000 Du        
     75 ****        22.2500  20.0000  62.7500 Du        
     76 ****        22.2500  20.0000  63.0000 Du        
     77 ****        22.2500  20.0000  63.2500 Du        
     78 ****        22.2500  20.0000  63.5000 Du        
     79 ****        22.2500  20.0000  63.7500 Du        
     80 ****        22.2500  20.0000  64.0000 Du        
     81 ****        22.2500  20.2500  62.5000 Du        
     82 ****        22.2500  20.2500  62.7500 Du        
     83 ****        22.2500  20.2500  63.0000 Du        
     84 ****        22.2500  20.2500  63.2500 Du        
     85 ****        22.2500  20.2500  63.5000 Du        
     86 ****        22.2500  20.2500  63.7500 Du        
     87 ****        22.2500  20.2500  64.0000 Du        
     88 ****        22.2500  20.5000  62.7500 Du        
     89 ****        22.2500  20.5000  63.0000 Du        
     90 ****        22.2500  20.5000  63.2500 Du        
     91 ****        22.2500  20.5000  63.5000 Du        
     92 ****        22.2500  20.5000  63.7500 Du        
     93 ****        22.2500  20.5000  64.0000 Du        
     94 ****        22.2500  20.7500  62.7500 Du        
     95 ****        22.2500  20.7500  63.0000 Du        
     96 ****        22.2500  20.7500  63.2500 Du        
     97 ****        22.2500  20.7500  63.5000 Du        
     98 ****        22.2500  20.7500  63.7500 Du        
     99 ****        22.2500  20.7500  64.0000 Du        
    100 ****        22.2500  21.0000  62.7500 Du        
    101 ****        22.2500  21.0000  63.0000 Du        
    102 ****        22.2500  21.0000  63.2500 Du        
    103 ****        22.2500  21.0000  63.5000 Du        
    104 ****        22.2500  21.0000  63.7500 Du        
    105 ****        22.2500  21.2500  62.7500 Du        
    106 ****        22.2500  21.2500  63.0000 Du        
    107 ****        22.2500  21.2500  63.2500 Du        
    108 ****        22.2500  21.2500  63.5000 Du        
    109 ****        22.2500  21.2500  63.7500 Du        
    110 ****        22.2500  21.5000  62.7500 Du        
    111 ****        22.2500  21.5000  63.0000 Du        
    112 ****        22.2500  21.5000  63.2500 Du        
    113 ****        22.2500  21.5000  63.5000 Du        
    114 ****        22.2500  21.7500  62.5000 Du        
    115 ****        22.2500  21.7500  62.7500 Du        
    116 ****        22.2500  21.7500  63.0000 Du        
    117 ****        22.2500  21.7500  63.2500 Du        
    118 ****        22.2500  22.0000  62.2500 Du        
    119 ****        22.2500  22.0000  62.5000 Du        
    120 ****        22.2500  22.0000  62.7500 Du        
    121 ****        22.2500  22.0000  63.0000 Du        
    122 ****        22.2500  22.0000  63.2500 Du        
    123 ****        22.2500  22.2500  62.2500 Du        
    124 ****        22.2500  22.2500  62.5000 Du        
    125 ****        22.2500  22.2500  62.7500 Du        
    126 ****        22.2500  22.2500  63.0000 Du        
    127 ****        22.2500  22.2500  63.2500 Du        
    128 ****        22.2500  22.5000  62.0000 Du        
    129 ****        22.2500  22.5000  62.2500 Du        
    130 ****        22.2500  22.5000  62.5000 Du        
    131 ****        22.2500  22.5000  62.7500 Du        
    132 ****        22.2500  22.5000  63.0000 Du        
    133 ****        22.2500  22.7500  61.7500 Du        
    134 ****        22.2500  22.7500  62.0000 Du        
    135 ****        22.2500  22.7500  62.2500 Du        
    136 ****        22.2500  22.7500  62.5000 Du        
    137 ****        22.2500  22.7500  62.7500 Du        
    138 ****        22.2500  22.7500  63.0000 Du        
    139 ****        22.2500  23.0000  61.7500 Du        
    140 ****        22.2500  23.0000  62.0000 Du        
    141 ****        22.2500  23.0000  62.2500 Du        
    142 ****        22.2500  23.0000  62.5000 Du        
    143 ****        22.2500  23.0000  62.7500 Du        
    144 ****        22.2500  23.2500  61.7500 Du        
    145 ****        22.2500  23.2500  62.0000 Du        
    146 ****        22.2500  23.2500  62.2500 Du        
    147 ****        22.2500  23.2500  62.5000 Du        
    148 ****        22.2500  23.5000  62.2500 Du        
    149 ****        22.5000  18.5000  62.2500 Du        
    150 ****        22.5000  18.5000  62.5000 Du        
    151 ****        22.5000  18.7500  62.0000 Du        
    152 ****        22.5000  18.7500  62.2500 Du        
    153 ****        22.5000  18.7500  62.5000 Du        
    154 ****        22.5000  18.7500  62.7500 Du        
    155 ****        22.5000  18.7500  63.0000 Du        
    156 ****        22.5000  19.0000  62.0000 Du        
    157 ****        22.5000  19.0000  62.2500 Du        
    158 ****        22.5000  19.0000  62.5000 Du        
    159 ****        22.5000  19.0000  62.7500 Du        
    160 ****        22.5000  19.0000  63.0000 Du        
    161 ****        22.5000  19.0000  63.2500 Du        
    162 ****        22.5000  19.0000  63.5000 Du        
    163 ****        22.5000  19.2500  62.0000 Du        
    164 ****        22.5000  19.2500  62.2500 Du        
    165 ****        22.5000  19.2500  62.5000 Du        
    166 ****        22.5000  19.2500  62.7500 Du        
    167 ****        22.5000  19.2500  63.0000 Du        
    168 ****        22.5000  19.2500  63.2500 Du        
    169 ****        22.5000  19.2500  63.5000 Du        
    170 ****        22.5000  19.2500  63.7500 Du        
    171 ****        22.5000  19.5000  62.2500 Du        
    172 ****        22.5000  19.5000  62.5000 Du        
    173 ****        22.5000  19.5000  62.7500 Du        
    174 ****        22.5000  19.5000  63.0000 Du        
    175 ****        22.5000  19.5000  63.2500 Du        
    176 ****        22.5000  19.5000  63.5000 Du        
    177 ****        22.5000  19.5000  63.7500 Du        
    178 ****        22.5000  19.5000  64.0000 Du        
    179 ****        22.5000  19.7500  62.2500 Du        
    180 ****        22.5000  19.7500  62.5000 Du        
    181 ****        22.5000  19.7500  62.7500 Du        
    182 ****        22.5000  19.7500  63.0000 Du        
    183 ****        22.5000  19.7500  63.2500 Du        
    184 ****        22.5000  19.7500  63.5000 Du        
    185 ****        22.5000  19.7500  63.7500 Du        
    186 ****        22.5000  19.7500  64.0000 Du        
    187 ****        22.5000  19.7500  64.2500 Du        
    188 ****        22.5000  20.0000  62.5000 Du        
    189 ****        22.5000  20.0000  62.7500 Du        
    190 ****        22.5000  20.0000  63.0000 Du        
    191 ****        22.5000  20.0000  63.2500 Du        
    192 ****        22.5000  20.0000  63.5000 Du        
    193 ****        22.5000  20.0000  63.7500 Du        
    194 ****        22.5000  20.0000  64.0000 Du        
    195 ****        22.5000  20.0000  64.2500 Du        
    196 ****        22.5000  20.2500  62.5000 Du        
    197 ****        22.5000  20.2500  62.7500 Du        
    198 ****        22.5000  20.2500  63.0000 Du        
    199 ****        22.5000  20.2500  63.2500 Du        
    200 ****        22.5000  20.2500  63.5000 Du        
    201 ****        22.5000  20.2500  63.7500 Du        
    202 ****        22.5000  20.2500  64.0000 Du        
    203 ****        22.5000  20.2500  64.2500 Du        
    204 ****        22.5000  20.5000  62.5000 Du        
    205 ****        22.5000  20.5000  62.7500 Du        
    206 ****        22.5000  20.5000  63.0000 Du        
    207 ****        22.5000  20.5000  63.2500 Du        
    208 ****        22.5000  20.5000  63.5000 Du        
    209 ****        22.5000  20.5000  63.7500 Du        
    210 ****        22.5000  20.5000  64.0000 Du        
    211 ****        22.5000  20.5000  64.2500 Du        
    212 ****        22.5000  20.7500  62.5000 Du        
    213 ****        22.5000  20.7500  62.7500 Du        
    214 ****        22.5000  20.7500  63.0000 Du        
    215 ****        22.5000  20.7500  63.2500 Du        
    216 ****        22.5000  20.7500  63.5000 Du        
    217 ****        22.5000  20.7500  63.7500 Du        
    218 ****        22.5000  20.7500  64.0000 Du        
    219 ****        22.5000  21.0000  62.7500 Du        
    220 ****        22.5000  21.0000  63.0000 Du        
    221 ****        22.5000  21.0000  63.2500 Du        
    222 ****        22.5000  21.0000  63.5000 Du        
    223 ****        22.5000  21.0000  63.7500 Du        
    224 ****        22.5000  21.0000  64.0000 Du        
    225 ****        22.5000  21.2500  62.5000 Du        
    226 ****        22.5000  21.2500  62.7500 Du        
    227 ****        22.5000  21.2500  63.0000 Du        
    228 ****        22.5000  21.2500  63.2500 Du        
    229 ****        22.5000  21.2500  63.5000 Du        
    230 ****        22.5000  21.2500  63.7500 Du        
    231 ****        22.5000  21.5000  62.5000 Du        
    232 ****        22.5000  21.5000  62.7500 Du        
    233 ****        22.5000  21.5000  63.0000 Du        
    234 ****        22.5000  21.5000  63.2500 Du        
    235 ****        22.5000  21.5000  63.5000 Du        
    236 ****        22.5000  21.7500  62.5000 Du        
    237 ****        22.5000  21.7500  62.7500 Du        
    238 ****        22.5000  21.7500  63.0000 Du        
    239 ****        22.5000  21.7500  63.2500 Du        
    240 ****        22.5000  22.0000  62.2500 Du        
    241 ****        22.5000  22.0000  62.5000 Du        
    242 ****        22.5000  22.0000  62.7500 Du        
    243 ****        22.5000  22.0000  63.0000 Du        
    244 ****        22.5000  22.0000  63.2500 Du        
    245 ****        22.5000  22.2500  62.0000 Du        
    246 ****        22.5000  22.2500  62.2500 Du        
    247 ****        22.5000  22.2500  62.5000 Du        
    248 ****        22.5000  22.2500  62.7500 Du        
    249 ****        22.5000  22.2500  63.0000 Du        
    250 ****        22.5000  22.2500  63.2500 Du        
    251 ****        22.5000  22.5000  62.0000 Du        
    252 ****        22.5000  22.5000  62.2500 Du        
    253 ****        22.5000  22.5000  62.5000 Du        
    254 ****        22.5000  22.5000  62.7500 Du        
    255 ****        22.5000  22.5000  63.0000 Du        
    256 ****        22.5000  22.7500  61.7500 Du        
    257 ****        22.5000  22.7500  62.0000 Du        
    258 ****        22.5000  22.7500  62.2500 Du        
    259 ****        22.5000  22.7500  62.5000 Du        
    260 ****        22.5000  22.7500  62.7500 Du        
    261 ****        22.5000  23.0000  61.5000 Du        
    262 ****        22.5000  23.0000  61.7500 Du        
    263 ****        22.5000  23.0000  62.0000 Du        
    264 ****        22.5000  23.0000  62.2500 Du        
    265 ****        22.5000  23.0000  62.5000 Du        
    266 ****        22.5000  23.0000  62.7500 Du        
    267 ****        22.5000  23.2500  61.5000 Du        
    268 ****        22.5000  23.2500  61.7500 Du        
    269 ****        22.5000  23.2500  62.0000 Du        
    270 ****        22.5000  23.2500  62.2500 Du        
    271 ****        22.5000  23.2500  62.5000 Du        
    272 ****        22.5000  23.5000  62.0000 Du        
    273 ****        22.5000  23.5000  62.2500 Du        
    274 ****        22.7500  18.2500  62.7500 Du        
    275 ****        22.7500  18.5000  62.2500 Du        
    276 ****        22.7500  18.5000  62.5000 Du        
    277 ****        22.7500  18.5000  62.7500 Du        
    278 ****        22.7500  18.5000  63.0000 Du        
    279 ****        22.7500  18.5000  63.2500 Du        
    280 ****        22.7500  18.7500  62.0000 Du        
    281 ****        22.7500  18.7500  62.2500 Du        
    282 ****        22.7500  18.7500  62.5000 Du        
    283 ****        22.7500  18.7500  62.7500 Du        
    284 ****        22.7500  18.7500  63.0000 Du        
    285 ****        22.7500  18.7500  63.2500 Du        
    286 ****        22.7500  18.7500  63.5000 Du        
    287 ****        22.7500  18.7500  63.7500 Du        
    288 ****        22.7500  19.0000  62.0000 Du        
    289 ****        22.7500  19.0000  62.2500 Du        
    290 ****        22.7500  19.0000  62.5000 Du        
    291 ****        22.7500  19.0000  62.7500 Du        
    292 ****        22.7500  19.0000  63.0000 Du        
    293 ****        22.7500  19.0000  63.2500 Du        
    294 ****        22.7500  19.0000  63.5000 Du        
    295 ****        22.7500  19.0000  63.7500 Du        
    296 ****        22.7500  19.0000  64.0000 Du        
    297 ****        22.7500  19.2500  62.0000 Du        
    298 ****        22.7500  19.2500  62.2500 Du        
    299 ****        22.7500  19.2500  62.5000 Du        
    300 ****        22.7500  19.2500  62.7500 Du        
    301 ****        22.7500  19.2500  63.0000 Du        
    302 ****        22.7500  19.2500  63.2500 Du        
    303 ****        22.7500  19.2500  63.5000 Du        
    304 ****        22.7500  19.2500  63.7500 Du        
    305 ****        22.7500  19.2500  64.0000 Du        
    306 ****        22.7500  19.5000  62.2500 Du        
    307 ****        22.7500  19.5000  62.5000 Du        
    308 ****        22.7500  19.5000  62.7500 Du        
    309 ****        22.7500  19.5000  63.0000 Du        
    310 ****        22.7500  19.5000  63.2500 Du        
    311 ****        22.7500  19.5000  63.5000 Du        
    312 ****        22.7500  19.5000  63.7500 Du        
    313 ****        22.7500  19.5000  64.0000 Du        
    314 ****        22.7500  19.5000  64.2500 Du        
    315 ****        22.7500  19.7500  62.2500 Du        
    316 ****        22.7500  19.7500  62.5000 Du        
    317 ****        22.7500  19.7500  62.7500 Du        
    318 ****        22.7500  19.7500  63.0000 Du        
    319 ****        22.7500  19.7500  63.2500 Du        
    320 ****        22.7500  19.7500  63.5000 Du        
    321 ****        22.7500  19.7500  63.7500 Du        
    322 ****        22.7500  19.7500  64.0000 Du        
    323 ****        22.7500  19.7500  64.2500 Du        
    324 ****        22.7500  19.7500  64.5000 Du        
    325 ****        22.7500  20.0000  62.2500 Du        
    326 ****        22.7500  20.0000  62.5000 Du        
    327 ****        22.7500  20.0000  62.7500 Du        
    328 ****        22.7500  20.0000  63.0000 Du        
    329 ****        22.7500  20.0000  63.2500 Du        
    330 ****        22.7500  20.0000  63.5000 Du        
    331 ****        22.7500  20.0000  63.7500 Du        
    332 ****        22.7500  20.0000  64.0000 Du        
    333 ****        22.7500  20.0000  64.2500 Du        
    334 ****        22.7500  20.0000  64.5000 Du        
    335 ****        22.7500  20.0000  64.7500 Du        
    336 ****        22.7500  20.2500  62.5000 Du        
    337 ****        22.7500  20.2500  62.7500 Du        
    338 ****        22.7500  20.2500  63.0000 Du        
    339 ****        22.7500  20.2500  63.2500 Du        
    340 ****        22.7500  20.2500  63.5000 Du        
    341 ****        22.7500  20.2500  63.7500 Du        
    342 ****        22.7500  20.2500  64.0000 Du        
    343 ****        22.7500  20.2500  64.2500 Du        
    344 ****        22.7500  20.2500  64.5000 Du        
    345 ****        22.7500  20.2500  64.7500 Du        
    346 ****        22.7500  20.5000  62.5000 Du        
    347 ****        22.7500  20.5000  62.7500 Du        
    348 ****        22.7500  20.5000  63.0000 Du        
    349 ****        22.7500  20.5000  63.2500 Du        
    350 ****        22.7500  20.5000  63.5000 Du        
    351 ****        22.7500  20.5000  63.7500 Du        
    352 ****        22.7500  20.5000  64.0000 Du        
    353 ****        22.7500  20.5000  64.2500 Du        
    354 ****        22.7500  20.5000  64.5000 Du        
    355 ****        22.7500  20.7500  62.5000 Du        
    356 ****        22.7500  20.7500  62.7500 Du        
    357 ****        22.7500  20.7500  63.0000 Du        
    358 ****        22.7500  20.7500  63.2500 Du        
    359 ****        22.7500  20.7500  63.5000 Du        
    360 ****        22.7500  20.7500  63.7500 Du        
    361 ****        22.7500  20.7500  64.0000 Du        
    362 ****        22.7500  20.7500  64.2500 Du        
    363 ****        22.7500  21.0000  62.5000 Du        
    364 ****        22.7500  21.0000  62.7500 Du        
    365 ****        22.7500  21.0000  63.0000 Du        
    366 ****        22.7500  21.0000  63.2500 Du        
    367 ****        22.7500  21.0000  63.5000 Du        
    368 ****        22.7500  21.0000  63.7500 Du        
    369 ****        22.7500  21.0000  64.0000 Du        
    370 ****        22.7500  21.2500  62.5000 Du        
    371 ****        22.7500  21.2500  62.7500 Du        
    372 ****        22.7500  21.2500  63.0000 Du        
    373 ****        22.7500  21.2500  63.2500 Du        
    374 ****        22.7500  21.2500  63.5000 Du        
    375 ****        22.7500  21.2500  63.7500 Du        
    376 ****        22.7500  21.5000  62.5000 Du        
    377 ****        22.7500  21.5000  62.7500 Du        
    378 ****        22.7500  21.5000  63.0000 Du        
    379 ****        22.7500  21.5000  63.2500 Du        
    380 ****        22.7500  21.5000  63.5000 Du        
    381 ****        22.7500  21.7500  62.2500 Du        
    382 ****        22.7500  21.7500  62.5000 Du        
    383 ****        22.7500  21.7500  62.7500 Du        
    384 ****        22.7500  21.7500  63.0000 Du        
    385 ****        22.7500  21.7500  63.2500 Du        
    386 ****        22.7500  21.7500  63.5000 Du        
    387 ****        22.7500  22.0000  62.2500 Du        
    388 ****        22.7500  22.0000  62.5000 Du        
    389 ****        22.7500  22.0000  62.7500 Du        
    390 ****        22.7500  22.0000  63.0000 Du        
    391 ****        22.7500  22.0000  63.2500 Du        
    392 ****        22.7500  22.2500  54.7500 Du        
    393 ****        22.7500  22.2500  62.0000 Du        
    394 ****        22.7500  22.2500  62.2500 Du        
    395 ****        22.7500  22.2500  62.5000 Du        
    396 ****        22.7500  22.2500  62.7500 Du        
    397 ****        22.7500  22.2500  63.0000 Du        
    398 ****        22.7500  22.2500  63.2500 Du        
    399 ****        22.7500  22.5000  61.7500 Du        
    400 ****        22.7500  22.5000  62.0000 Du        
    401 ****        22.7500  22.5000  62.2500 Du        
    402 ****        22.7500  22.5000  62.5000 Du        
    403 ****        22.7500  22.5000  62.7500 Du        
    404 ****        22.7500  22.5000  63.0000 Du        
    405 ****        22.7500  22.7500  61.5000 Du        
    406 ****        22.7500  22.7500  61.7500 Du        
    407 ****        22.7500  22.7500  62.0000 Du        
    408 ****        22.7500  22.7500  62.2500 Du        
    409 ****        22.7500  22.7500  62.5000 Du        
    410 ****        22.7500  22.7500  62.7500 Du        
    411 ****        22.7500  23.0000  61.2500 Du        
    412 ****        22.7500  23.0000  61.5000 Du        
    413 ****        22.7500  23.0000  61.7500 Du        
    414 ****        22.7500  23.0000  62.0000 Du        
    415 ****        22.7500  23.0000  62.2500 Du        
    416 ****        22.7500  23.0000  62.5000 Du        
    417 ****        22.7500  23.0000  62.7500 Du        
    418 ****        22.7500  23.2500  61.2500 Du        
    419 ****        22.7500  23.2500  61.5000 Du        
    420 ****        22.7500  23.2500  61.7500 Du        
    421 ****        22.7500  23.2500  62.0000 Du        
    422 ****        22.7500  23.2500  62.2500 Du        
    423 ****        22.7500  23.2500  62.5000 Du        
    424 ****        22.7500  23.5000  61.7500 Du        
    425 ****        22.7500  23.5000  62.0000 Du        
    426 ****        22.7500  23.5000  62.2500 Du        
    427 ****        23.0000  18.0000  63.0000 Du        
    428 ****        23.0000  18.0000  63.2500 Du        
    429 ****        23.0000  18.2500  62.7500 Du        
    430 ****        23.0000  18.2500  63.0000 Du        
    431 ****        23.0000  18.2500  63.2500 Du        
    432 ****        23.0000  18.2500  63.5000 Du        
    433 ****        23.0000  18.5000  62.2500 Du        
    434 ****        23.0000  18.5000  62.5000 Du        
    435 ****        23.0000  18.5000  62.7500 Du        
    436 ****        23.0000  18.5000  63.0000 Du        
    437 ****        23.0000  18.5000  63.2500 Du        
    438 ****        23.0000  18.5000  63.5000 Du        
    439 ****        23.0000  18.5000  63.7500 Du        
    440 ****        23.0000  18.7500  62.0000 Du        
    441 ****        23.0000  18.7500  62.2500 Du        
    442 ****        23.0000  18.7500  62.5000 Du        
    443 ****        23.0000  18.7500  62.7500 Du        
    444 ****        23.0000  18.7500  63.0000 Du        
    445 ****        23.0000  18.7500  63.2500 Du        
    446 ****        23.0000  18.7500  63.5000 Du        
    447 ****        23.0000  18.7500  63.7500 Du        
    448 ****        23.0000  18.7500  64.0000 Du        
    449 ****        23.0000  19.0000  61.7500 Du        
    450 ****        23.0000  19.0000  62.0000 Du        
    451 ****        23.0000  19.0000  62.2500 Du        
    452 ****        23.0000  19.0000  62.5000 Du        
    453 ****        23.0000  19.0000  62.7500 Du        
    454 ****        23.0000  19.0000  63.0000 Du        
    455 ****        23.0000  19.0000  63.2500 Du        
    456 ****        23.0000  19.0000  63.5000 Du        
    457 ****        23.0000  19.0000  63.7500 Du        
    458 ****        23.0000  19.0000  64.0000 Du        
    459 ****        23.0000  19.0000  64.2500 Du        
    460 ****        23.0000  19.2500  62.0000 Du        
    461 ****        23.0000  19.2500  62.2500 Du        
    462 ****        23.0000  19.2500  62.5000 Du        
    463 ****        23.0000  19.2500  62.7500 Du        
    464 ****        23.0000  19.2500  63.0000 Du        
    465 ****        23.0000  19.2500  63.2500 Du        
    466 ****        23.0000  19.2500  63.5000 Du        
    467 ****        23.0000  19.2500  63.7500 Du        
    468 ****        23.0000  19.2500  64.0000 Du        
    469 ****        23.0000  19.2500  64.2500 Du        
    470 ****        23.0000  19.2500  64.5000 Du        
    471 ****        23.0000  19.5000  62.0000 Du        
    472 ****        23.0000  19.5000  62.2500 Du        
    473 ****        23.0000  19.5000  62.5000 Du        
    474 ****        23.0000  19.5000  62.7500 Du        
    475 ****        23.0000  19.5000  63.0000 Du        
    476 ****        23.0000  19.5000  63.2500 Du        
    477 ****        23.0000  19.5000  63.5000 Du        
    478 ****        23.0000  19.5000  63.7500 Du        
    479 ****        23.0000  19.5000  64.0000 Du        
    480 ****        23.0000  19.5000  64.2500 Du        
    481 ****        23.0000  19.5000  64.5000 Du        
    482 ****        23.0000  19.5000  64.7500 Du        
    483 ****        23.0000  19.7500  62.2500 Du        
    484 ****        23.0000  19.7500  62.5000 Du        
    485 ****        23.0000  19.7500  62.7500 Du        
    486 ****        23.0000  19.7500  63.0000 Du        
    487 ****        23.0000  19.7500  63.2500 Du        
    488 ****        23.0000  19.7500  63.5000 Du        
    489 ****        23.0000  19.7500  63.7500 Du        
    490 ****        23.0000  19.7500  64.0000 Du        
    491 ****        23.0000  19.7500  64.2500 Du        
    492 ****        23.0000  19.7500  64.5000 Du        
    493 ****        23.0000  19.7500  64.7500 Du        
    494 ****        23.0000  19.7500  65.0000 Du        
    495 ****        23.0000  20.0000  62.2500 Du        
    496 ****        23.0000  20.0000  62.5000 Du        
    497 ****        23.0000  20.0000  62.7500 Du        
    498 ****        23.0000  20.0000  63.0000 Du        
    499 ****        23.0000  20.0000  63.2500 Du        
    500 ****        23.0000  20.0000  63.5000 Du        
    501 ****        23.0000  20.0000  63.7500 Du        
    502 ****        23.0000  20.0000  64.0000 Du        
    503 ****        23.0000  20.0000  64.2500 Du        
    504 ****        23.0000  20.0000  64.5000 Du        
    505 ****        23.0000  20.0000  64.7500 Du        
    506 ****        23.0000  20.0000  65.0000 Du        
    507 ****        23.0000  20.2500  62.2500 Du        
    508 ****        23.0000  20.2500  62.5000 Du        
    509 ****        23.0000  20.2500  62.7500 Du        
    510 ****        23.0000  20.2500  63.0000 Du        
    511 ****        23.0000  20.2500  63.2500 Du        
    512 ****        23.0000  20.2500  63.5000 Du        
    513 ****        23.0000  20.2500  63.7500 Du        
    514 ****        23.0000  20.2500  64.0000 Du        
    515 ****        23.0000  20.2500  64.2500 Du        
    516 ****        23.0000  20.2500  64.5000 Du        
    517 ****        23.0000  20.2500  64.7500 Du        
    518 ****        23.0000  20.2500  65.0000 Du        
    519 ****        23.0000  20.5000  62.5000 Du        
    520 ****        23.0000  20.5000  62.7500 Du        
    521 ****        23.0000  20.5000  63.0000 Du        
    522 ****        23.0000  20.5000  63.2500 Du        
    523 ****        23.0000  20.5000  63.5000 Du        
    524 ****        23.0000  20.5000  63.7500 Du        
    525 ****        23.0000  20.5000  64.0000 Du        
    526 ****        23.0000  20.5000  64.2500 Du        
    527 ****        23.0000  20.5000  64.5000 Du        
    528 ****        23.0000  20.7500  62.5000 Du        
    529 ****        23.0000  20.7500  62.7500 Du        
    530 ****        23.0000  20.7500  63.0000 Du        
    531 ****        23.0000  20.7500  63.2500 Du        
    532 ****        23.0000  20.7500  63.5000 Du        
    533 ****        23.0000  20.7500  63.7500 Du        
    534 ****        23.0000  20.7500  64.0000 Du        
    535 ****        23.0000  20.7500  64.2500 Du        
    536 ****        23.0000  21.0000  62.5000 Du        
    537 ****        23.0000  21.0000  62.7500 Du        
    538 ****        23.0000  21.0000  63.0000 Du        
    539 ****        23.0000  21.0000  63.2500 Du        
    540 ****        23.0000  21.0000  63.5000 Du        
    541 ****        23.0000  21.0000  63.7500 Du        
    542 ****        23.0000  21.0000  64.0000 Du        
    543 ****        23.0000  21.2500  62.2500 Du        
    544 ****        23.0000  21.2500  62.5000 Du        
    545 ****        23.0000  21.2500  62.7500 Du        
    546 ****        23.0000  21.2500  63.0000 Du        
    547 ****        23.0000  21.2500  63.2500 Du        
    548 ****        23.0000  21.2500  63.5000 Du        
    549 ****        23.0000  21.2500  63.7500 Du        
    550 ****        23.0000  21.5000  62.2500 Du        
    551 ****        23.0000  21.5000  62.5000 Du        
    552 ****        23.0000  21.5000  62.7500 Du        
    553 ****        23.0000  21.5000  63.0000 Du        
    554 ****        23.0000  21.5000  63.2500 Du        
    555 ****        23.0000  21.5000  63.5000 Du        
    556 ****        23.0000  21.7500  62.2500 Du        
    557 ****        23.0000  21.7500  62.5000 Du        
    558 ****        23.0000  21.7500  62.7500 Du        
    559 ****        23.0000  21.7500  63.0000 Du        
    560 ****        23.0000  21.7500  63.2500 Du        
    561 ****        23.0000  21.7500  63.5000 Du        
    562 ****        23.0000  22.0000  62.0000 Du        
    563 ****        23.0000  22.0000  62.2500 Du        
    564 ****        23.0000  22.0000  62.5000 Du        
    565 ****        23.0000  22.0000  62.7500 Du        
    566 ****        23.0000  22.0000  63.0000 Du        
    567 ****        23.0000  22.0000  63.2500 Du        
    568 ****        23.0000  22.2500  54.7500 Du        
    569 ****        23.0000  22.2500  55.0000 Du        
    570 ****        23.0000  22.2500  62.0000 Du        
    571 ****        23.0000  22.2500  62.2500 Du        
    572 ****        23.0000  22.2500  62.5000 Du        
    573 ****        23.0000  22.2500  62.7500 Du        
    574 ****        23.0000  22.2500  63.0000 Du        
    575 ****        23.0000  22.2500  63.2500 Du        
    576 ****        23.0000  22.5000  61.7500 Du        
    577 ****        23.0000  22.5000  62.0000 Du        
    578 ****        23.0000  22.5000  62.2500 Du        
    579 ****        23.0000  22.5000  62.5000 Du        
    580 ****        23.0000  22.5000  62.7500 Du        
    581 ****        23.0000  22.5000  63.0000 Du        
    582 ****        23.0000  22.7500  61.5000 Du        
    583 ****        23.0000  22.7500  61.7500 Du        
    584 ****        23.0000  22.7500  62.0000 Du        
    585 ****        23.0000  22.7500  62.2500 Du        
    586 ****        23.0000  22.7500  62.5000 Du        
    587 ****        23.0000  22.7500  62.7500 Du        
    588 ****        23.0000  23.0000  61.0000 Du        
    589 ****        23.0000  23.0000  61.2500 Du        
    590 ****        23.0000  23.0000  61.5000 Du        
    591 ****        23.0000  23.0000  61.7500 Du        
    592 ****        23.0000  23.0000  62.0000 Du        
    593 ****        23.0000  23.0000  62.2500 Du        
    594 ****        23.0000  23.0000  62.5000 Du        
    595 ****        23.0000  23.0000  62.7500 Du        
    596 ****        23.0000  23.2500  61.0000 Du        
    597 ****        23.0000  23.2500  61.2500 Du        
    598 ****        23.0000  23.2500  61.5000 Du        
    599 ****        23.0000  23.2500  61.7500 Du        
    600 ****        23.0000  23.2500  62.0000 Du        
    601 ****        23.0000  23.2500  62.2500 Du        
    602 ****        23.0000  23.2500  62.5000 Du        
    603 ****        23.0000  23.5000  61.5000 Du        
    604 ****        23.0000  23.5000  61.7500 Du        
    605 ****        23.0000  23.5000  62.0000 Du        
    606 ****        23.0000  23.5000  62.2500 Du        
    607 ****        23.0000  23.7500  62.0000 Du        
    608 ****        23.2500  18.0000  63.0000 Du        
    609 ****        23.2500  18.0000  63.2500 Du        
    610 ****        23.2500  18.2500  62.7500 Du        
    611 ****        23.2500  18.2500  63.0000 Du        
    612 ****        23.2500  18.2500  63.2500 Du        
    613 ****        23.2500  18.2500  63.5000 Du        
    614 ****        23.2500  18.2500  63.7500 Du        
    615 ****        23.2500  18.5000  62.5000 Du        
    616 ****        23.2500  18.5000  62.7500 Du        
    617 ****        23.2500  18.5000  63.0000 Du        
    618 ****        23.2500  18.5000  63.2500 Du        
    619 ****        23.2500  18.5000  63.5000 Du        
    620 ****        23.2500  18.5000  63.7500 Du        
    621 ****        23.2500  18.5000  64.0000 Du        
    622 ****        23.2500  18.7500  62.0000 Du        
    623 ****        23.2500  18.7500  62.2500 Du        
    624 ****        23.2500  18.7500  62.5000 Du        
    625 ****        23.2500  18.7500  62.7500 Du        
    626 ****        23.2500  18.7500  63.0000 Du        
    627 ****        23.2500  18.7500  63.2500 Du        
    628 ****        23.2500  18.7500  63.5000 Du        
    629 ****        23.2500  18.7500  63.7500 Du        
    630 ****        23.2500  18.7500  64.0000 Du        
    631 ****        23.2500  18.7500  64.2500 Du        
    632 ****        23.2500  19.0000  61.7500 Du        
    633 ****        23.2500  19.0000  62.0000 Du        
    634 ****        23.2500  19.0000  62.2500 Du        
    635 ****        23.2500  19.0000  62.5000 Du        
    636 ****        23.2500  19.0000  62.7500 Du        
    637 ****        23.2500  19.0000  63.0000 Du        
    638 ****        23.2500  19.0000  63.2500 Du        
    639 ****        23.2500  19.0000  63.5000 Du        
    640 ****        23.2500  19.0000  63.7500 Du        
    641 ****        23.2500  19.0000  64.0000 Du        
    642 ****        23.2500  19.0000  64.2500 Du        
    643 ****        23.2500  19.0000  64.5000 Du        
    644 ****        23.2500  19.2500  61.7500 Du        
    645 ****        23.2500  19.2500  62.0000 Du        
    646 ****        23.2500  19.2500  62.2500 Du        
    647 ****        23.2500  19.2500  62.5000 Du        
    648 ****        23.2500  19.2500  62.7500 Du        
    649 ****        23.2500  19.2500  63.0000 Du        
    650 ****        23.2500  19.2500  63.2500 Du        
    651 ****        23.2500  19.2500  63.5000 Du        
    652 ****        23.2500  19.2500  63.7500 Du        
    653 ****        23.2500  19.2500  64.0000 Du        
    654 ****        23.2500  19.2500  64.2500 Du        
    655 ****        23.2500  19.2500  64.5000 Du        
    656 ****        23.2500  19.2500  64.7500 Du        
    657 ****        23.2500  19.5000  62.0000 Du        
    658 ****        23.2500  19.5000  62.2500 Du        
    659 ****        23.2500  19.5000  62.5000 Du        
    660 ****        23.2500  19.5000  62.7500 Du        
    661 ****        23.2500  19.5000  63.0000 Du        
    662 ****        23.2500  19.5000  63.2500 Du        
    663 ****        23.2500  19.5000  63.5000 Du        
    664 ****        23.2500  19.5000  63.7500 Du        
    665 ****        23.2500  19.5000  64.0000 Du        
    666 ****        23.2500  19.5000  64.2500 Du        
    667 ****        23.2500  19.5000  64.5000 Du        
    668 ****        23.2500  19.5000  64.7500 Du        
    669 ****        23.2500  19.5000  65.0000 Du        
    670 ****        23.2500  19.7500  62.0000 Du        
    671 ****        23.2500  19.7500  62.2500 Du        
    672 ****        23.2500  19.7500  62.5000 Du        
    673 ****        23.2500  19.7500  62.7500 Du        
    674 ****        23.2500  19.7500  63.0000 Du        
    675 ****        23.2500  19.7500  63.2500 Du        
    676 ****        23.2500  19.7500  63.5000 Du        
    677 ****        23.2500  19.7500  63.7500 Du        
    678 ****        23.2500  19.7500  64.0000 Du        
    679 ****        23.2500  19.7500  64.2500 Du        
    680 ****        23.2500  19.7500  64.5000 Du        
    681 ****        23.2500  19.7500  64.7500 Du        
    682 ****        23.2500  19.7500  65.0000 Du        
    683 ****        23.2500  19.7500  65.2500 Du        
    684 ****        23.2500  20.0000  62.2500 Du        
    685 ****        23.2500  20.0000  62.5000 Du        
    686 ****        23.2500  20.0000  62.7500 Du        
    687 ****        23.2500  20.0000  63.0000 Du        
    688 ****        23.2500  20.0000  63.2500 Du        
    689 ****        23.2500  20.0000  63.5000 Du        
    690 ****        23.2500  20.0000  63.7500 Du        
    691 ****        23.2500  20.0000  64.0000 Du        
    692 ****        23.2500  20.0000  64.2500 Du        
    693 ****        23.2500  20.0000  64.5000 Du        
    694 ****        23.2500  20.0000  64.7500 Du        
    695 ****        23.2500  20.0000  65.0000 Du        
    696 ****        23.2500  20.0000  65.2500 Du        
    697 ****        23.2500  20.2500  62.2500 Du        
    698 ****        23.2500  20.2500  62.5000 Du        
    699 ****        23.2500  20.2500  62.7500 Du        
    700 ****        23.2500  20.2500  63.0000 Du        
    701 ****        23.2500  20.2500  63.2500 Du        
    702 ****        23.2500  20.2500  63.5000 Du        
    703 ****        23.2500  20.2500  63.7500 Du        
    704 ****        23.2500  20.2500  64.0000 Du        
    705 ****        23.2500  20.2500  64.2500 Du        
    706 ****        23.2500  20.2500  64.5000 Du        
    707 ****        23.2500  20.2500  64.7500 Du        
    708 ****        23.2500  20.2500  65.0000 Du        
    709 ****        23.2500  20.5000  62.2500 Du        
    710 ****        23.2500  20.5000  62.5000 Du        
    711 ****        23.2500  20.5000  62.7500 Du        
    712 ****        23.2500  20.5000  63.0000 Du        
    713 ****        23.2500  20.5000  63.2500 Du        
    714 ****        23.2500  20.5000  63.5000 Du        
    715 ****        23.2500  20.5000  63.7500 Du        
    716 ****        23.2500  20.5000  64.0000 Du        
    717 ****        23.2500  20.5000  64.2500 Du        
    718 ****        23.2500  20.5000  64.5000 Du        
    719 ****        23.2500  20.7500  62.2500 Du        
    720 ****        23.2500  20.7500  62.5000 Du        
    721 ****        23.2500  20.7500  62.7500 Du        
    722 ****        23.2500  20.7500  63.0000 Du        
    723 ****        23.2500  20.7500  63.2500 Du        
    724 ****        23.2500  20.7500  63.5000 Du        
    725 ****        23.2500  20.7500  63.7500 Du        
    726 ****        23.2500  20.7500  64.0000 Du        
    727 ****        23.2500  20.7500  64.2500 Du        
    728 ****        23.2500  21.0000  62.2500 Du        
    729 ****        23.2500  21.0000  62.5000 Du        
    730 ****        23.2500  21.0000  62.7500 Du        
    731 ****        23.2500  21.0000  63.0000 Du        
    732 ****        23.2500  21.0000  63.2500 Du        
    733 ****        23.2500  21.0000  63.5000 Du        
    734 ****        23.2500  21.0000  63.7500 Du        
    735 ****        23.2500  21.0000  64.0000 Du        
    736 ****        23.2500  21.2500  62.2500 Du        
    737 ****        23.2500  21.2500  62.5000 Du        
    738 ****        23.2500  21.2500  62.7500 Du        
    739 ****        23.2500  21.2500  63.0000 Du        
    740 ****        23.2500  21.2500  63.2500 Du        
    741 ****        23.2500  21.2500  63.5000 Du        
    742 ****        23.2500  21.2500  63.7500 Du        
    743 ****        23.2500  21.5000  62.2500 Du        
    744 ****        23.2500  21.5000  62.5000 Du        
    745 ****        23.2500  21.5000  62.7500 Du        
    746 ****        23.2500  21.5000  63.0000 Du        
    747 ****        23.2500  21.5000  63.2500 Du        
    748 ****        23.2500  21.5000  63.5000 Du        
    749 ****        23.2500  21.7500  62.0000 Du        
    750 ****        23.2500  21.7500  62.2500 Du        
    751 ****        23.2500  21.7500  62.5000 Du        
    752 ****        23.2500  21.7500  62.7500 Du        
    753 ****        23.2500  21.7500  63.0000 Du        
    754 ****        23.2500  21.7500  63.2500 Du        
    755 ****        23.2500  21.7500  63.5000 Du        
    756 ****        23.2500  22.0000  62.0000 Du        
    757 ****        23.2500  22.0000  62.2500 Du        
    758 ****        23.2500  22.0000  62.5000 Du        
    759 ****        23.2500  22.0000  62.7500 Du        
    760 ****        23.2500  22.0000  63.0000 Du        
    761 ****        23.2500  22.0000  63.2500 Du        
    762 ****        23.2500  22.2500  61.7500 Du        
    763 ****        23.2500  22.2500  62.0000 Du        
    764 ****        23.2500  22.2500  62.2500 Du        
    765 ****        23.2500  22.2500  62.5000 Du        
    766 ****        23.2500  22.2500  62.7500 Du        
    767 ****        23.2500  22.2500  63.0000 Du        
    768 ****        23.2500  22.5000  61.5000 Du        
    769 ****        23.2500  22.5000  61.7500 Du        
    770 ****        23.2500  22.5000  62.0000 Du        
    771 ****        23.2500  22.5000  62.2500 Du        
    772 ****        23.2500  22.5000  62.5000 Du        
    773 ****        23.2500  22.5000  62.7500 Du        
    774 ****        23.2500  22.5000  63.0000 Du        
    775 ****        23.2500  22.7500  61.2500 Du        
    776 ****        23.2500  22.7500  61.5000 Du        
    777 ****        23.2500  22.7500  61.7500 Du        
    778 ****        23.2500  22.7500  62.0000 Du        
    779 ****        23.2500  22.7500  62.2500 Du        
    780 ****        23.2500  22.7500  62.5000 Du        
    781 ****        23.2500  22.7500  62.7500 Du        
    782 ****        23.2500  23.0000  60.7500 Du        
    783 ****        23.2500  23.0000  61.0000 Du        
    784 ****        23.2500  23.0000  61.2500 Du        
    785 ****        23.2500  23.0000  61.5000 Du        
    786 ****        23.2500  23.0000  61.7500 Du        
    787 ****        23.2500  23.0000  62.0000 Du        
    788 ****        23.2500  23.0000  62.2500 Du        
    789 ****        23.2500  23.0000  62.5000 Du        
    790 ****        23.2500  23.2500  60.7500 Du        
    791 ****        23.2500  23.2500  61.0000 Du        
    792 ****        23.2500  23.2500  61.2500 Du        
    793 ****        23.2500  23.2500  61.5000 Du        
    794 ****        23.2500  23.2500  61.7500 Du        
    795 ****        23.2500  23.2500  62.0000 Du        
    796 ****        23.2500  23.2500  62.2500 Du        
    797 ****        23.2500  23.2500  62.5000 Du        
    798 ****        23.2500  23.5000  61.2500 Du        
    799 ****        23.2500  23.5000  61.5000 Du        
    800 ****        23.2500  23.5000  61.7500 Du        
    801 ****        23.2500  23.5000  62.0000 Du        
    802 ****        23.2500  23.5000  62.2500 Du        
    803 ****        23.2500  23.7500  61.7500 Du        
    804 ****        23.2500  23.7500  62.0000 Du        
    805 ****        23.2500  23.7500  62.2500 Du        
    806 ****        23.5000  18.0000  63.2500 Du        
    807 ****        23.5000  18.2500  63.0000 Du        
    808 ****        23.5000  18.2500  63.2500 Du        
    809 ****        23.5000  18.2500  63.5000 Du        
    810 ****        23.5000  18.2500  63.7500 Du        
    811 ****        23.5000  18.5000  62.7500 Du        
    812 ****        23.5000  18.5000  63.0000 Du        
    813 ****        23.5000  18.5000  63.2500 Du        
    814 ****        23.5000  18.5000  63.5000 Du        
    815 ****        23.5000  18.5000  63.7500 Du        
    816 ****        23.5000  18.5000  64.0000 Du        
    817 ****        23.5000  18.7500  62.2500 Du        
    818 ****        23.5000  18.7500  62.5000 Du        
    819 ****        23.5000  18.7500  62.7500 Du        
    820 ****        23.5000  18.7500  63.0000 Du        
    821 ****        23.5000  18.7500  63.2500 Du        
    822 ****        23.5000  18.7500  63.5000 Du        
    823 ****        23.5000  18.7500  63.7500 Du        
    824 ****        23.5000  18.7500  64.0000 Du        
    825 ****        23.5000  18.7500  64.2500 Du        
    826 ****        23.5000  19.0000  62.0000 Du        
    827 ****        23.5000  19.0000  62.2500 Du        
    828 ****        23.5000  19.0000  62.5000 Du        
    829 ****        23.5000  19.0000  62.7500 Du        
    830 ****        23.5000  19.0000  63.0000 Du        
    831 ****        23.5000  19.0000  63.2500 Du        
    832 ****        23.5000  19.0000  63.5000 Du        
    833 ****        23.5000  19.0000  63.7500 Du        
    834 ****        23.5000  19.0000  64.0000 Du        
    835 ****        23.5000  19.0000  64.2500 Du        
    836 ****        23.5000  19.0000  64.5000 Du        
    837 ****        23.5000  19.0000  64.7500 Du        
    838 ****        23.5000  19.2500  61.7500 Du        
    839 ****        23.5000  19.2500  62.0000 Du        
    840 ****        23.5000  19.2500  62.2500 Du        
    841 ****        23.5000  19.2500  62.5000 Du        
    842 ****        23.5000  19.2500  62.7500 Du        
    843 ****        23.5000  19.2500  63.0000 Du        
    844 ****        23.5000  19.2500  63.2500 Du        
    845 ****        23.5000  19.2500  63.5000 Du        
    846 ****        23.5000  19.2500  63.7500 Du        
    847 ****        23.5000  19.2500  64.0000 Du        
    848 ****        23.5000  19.2500  64.2500 Du        
    849 ****        23.5000  19.2500  64.5000 Du        
    850 ****        23.5000  19.2500  64.7500 Du        
    851 ****        23.5000  19.2500  65.0000 Du        
    852 ****        23.5000  19.5000  61.7500 Du        
    853 ****        23.5000  19.5000  62.0000 Du        
    854 ****        23.5000  19.5000  62.2500 Du        
    855 ****        23.5000  19.5000  62.5000 Du        
    856 ****        23.5000  19.5000  62.7500 Du        
    857 ****        23.5000  19.5000  63.0000 Du        
    858 ****        23.5000  19.5000  63.2500 Du        
    859 ****        23.5000  19.5000  63.5000 Du        
    860 ****        23.5000  19.5000  63.7500 Du        
    861 ****        23.5000  19.5000  64.0000 Du        
    862 ****        23.5000  19.5000  64.2500 Du        
    863 ****        23.5000  19.5000  64.5000 Du        
    864 ****        23.5000  19.5000  64.7500 Du        
    865 ****        23.5000  19.5000  65.0000 Du        
    866 ****        23.5000  19.5000  65.2500 Du        
    867 ****        23.5000  19.5000  65.5000 Du        
    868 ****        23.5000  19.7500  62.0000 Du        
    869 ****        23.5000  19.7500  62.2500 Du        
    870 ****        23.5000  19.7500  62.5000 Du        
    871 ****        23.5000  19.7500  62.7500 Du        
    872 ****        23.5000  19.7500  63.0000 Du        
    873 ****        23.5000  19.7500  63.2500 Du        
    874 ****        23.5000  19.7500  63.5000 Du        
    875 ****        23.5000  19.7500  63.7500 Du        
    876 ****        23.5000  19.7500  64.0000 Du        
    877 ****        23.5000  19.7500  64.2500 Du        
    878 ****        23.5000  19.7500  64.5000 Du        
    879 ****        23.5000  19.7500  64.7500 Du        
    880 ****        23.5000  19.7500  65.0000 Du        
    881 ****        23.5000  19.7500  65.2500 Du        
    882 ****        23.5000  19.7500  65.5000 Du        
    883 ****        23.5000  19.7500  65.7500 Du        
    884 ****        23.5000  20.0000  62.0000 Du        
    885 ****        23.5000  20.0000  62.2500 Du        
    886 ****        23.5000  20.0000  62.5000 Du        
    887 ****        23.5000  20.0000  62.7500 Du        
    888 ****        23.5000  20.0000  63.0000 Du        
    889 ****        23.5000  20.0000  63.2500 Du        
    890 ****        23.5000  20.0000  63.5000 Du        
    891 ****        23.5000  20.0000  63.7500 Du        
    892 ****        23.5000  20.0000  64.0000 Du        
    893 ****        23.5000  20.0000  64.2500 Du        
    894 ****        23.5000  20.0000  64.5000 Du        
    895 ****        23.5000  20.0000  64.7500 Du        
    896 ****        23.5000  20.0000  65.0000 Du        
    897 ****        23.5000  20.0000  65.2500 Du        
    898 ****        23.5000  20.0000  65.5000 Du        
    899 ****        23.5000  20.2500  62.0000 Du        
    900 ****        23.5000  20.2500  62.2500 Du        
    901 ****        23.5000  20.2500  62.5000 Du        
    902 ****        23.5000  20.2500  62.7500 Du        
    903 ****        23.5000  20.2500  63.0000 Du        
    904 ****        23.5000  20.2500  63.2500 Du        
    905 ****        23.5000  20.2500  63.5000 Du        
    906 ****        23.5000  20.2500  63.7500 Du        
    907 ****        23.5000  20.2500  64.0000 Du        
    908 ****        23.5000  20.2500  64.2500 Du        
    909 ****        23.5000  20.2500  64.5000 Du        
    910 ****        23.5000  20.2500  64.7500 Du        
    911 ****        23.5000  20.2500  65.0000 Du        
    912 ****        23.5000  20.5000  62.2500 Du        
    913 ****        23.5000  20.5000  62.5000 Du        
    914 ****        23.5000  20.5000  62.7500 Du        
    915 ****        23.5000  20.5000  63.0000 Du        
    916 ****        23.5000  20.5000  63.2500 Du        
    917 ****        23.5000  20.5000  63.5000 Du        
    918 ****        23.5000  20.5000  63.7500 Du        
    919 ****        23.5000  20.5000  64.0000 Du        
    920 ****        23.5000  20.5000  64.2500 Du        
    921 ****        23.5000  20.5000  64.5000 Du        
    922 ****        23.5000  20.5000  64.7500 Du        
    923 ****        23.5000  20.7500  62.2500 Du        
    924 ****        23.5000  20.7500  62.5000 Du        
    925 ****        23.5000  20.7500  62.7500 Du        
    926 ****        23.5000  20.7500  63.0000 Du        
    927 ****        23.5000  20.7500  63.2500 Du        
    928 ****        23.5000  20.7500  63.5000 Du        
    929 ****        23.5000  20.7500  63.7500 Du        
    930 ****        23.5000  20.7500  64.0000 Du        
    931 ****        23.5000  20.7500  64.2500 Du        
    932 ****        23.5000  21.0000  62.2500 Du        
    933 ****        23.5000  21.0000  62.5000 Du        
    934 ****        23.5000  21.0000  62.7500 Du        
    935 ****        23.5000  21.0000  63.0000 Du        
    936 ****        23.5000  21.0000  63.2500 Du        
    937 ****        23.5000  21.0000  63.5000 Du        
    938 ****        23.5000  21.0000  63.7500 Du        
    939 ****        23.5000  21.0000  64.0000 Du        
    940 ****        23.5000  21.2500  62.2500 Du        
    941 ****        23.5000  21.2500  62.5000 Du        
    942 ****        23.5000  21.2500  62.7500 Du        
    943 ****        23.5000  21.2500  63.0000 Du        
    944 ****        23.5000  21.2500  63.2500 Du        
    945 ****        23.5000  21.2500  63.5000 Du        
    946 ****        23.5000  21.2500  63.7500 Du        
    947 ****        23.5000  21.5000  62.0000 Du        
    948 ****        23.5000  21.5000  62.2500 Du        
    949 ****        23.5000  21.5000  62.5000 Du        
    950 ****        23.5000  21.5000  62.7500 Du        
    951 ****        23.5000  21.5000  63.0000 Du        
    952 ****        23.5000  21.5000  63.2500 Du        
    953 ****        23.5000  21.5000  63.5000 Du        
    954 ****        23.5000  21.7500  62.0000 Du        
    955 ****        23.5000  21.7500  62.2500 Du        
    956 ****        23.5000  21.7500  62.5000 Du        
    957 ****        23.5000  21.7500  62.7500 Du        
    958 ****        23.5000  21.7500  63.0000 Du        
    959 ****        23.5000  21.7500  63.2500 Du        
    960 ****        23.5000  22.0000  61.7500 Du        
    961 ****        23.5000  22.0000  62.0000 Du        
    962 ****        23.5000  22.0000  62.2500 Du        
    963 ****        23.5000  22.0000  62.5000 Du        
    964 ****        23.5000  22.0000  62.7500 Du        
    965 ****        23.5000  22.0000  63.0000 Du        
    966 ****        23.5000  22.0000  63.2500 Du        
    967 ****        23.5000  22.2500  61.7500 Du        
    968 ****        23.5000  22.2500  62.0000 Du        
    969 ****        23.5000  22.2500  62.2500 Du        
    970 ****        23.5000  22.2500  62.5000 Du        
    971 ****        23.5000  22.2500  62.7500 Du        
    972 ****        23.5000  22.2500  63.0000 Du        
    973 ****        23.5000  22.5000  61.5000 Du        
    974 ****        23.5000  22.5000  61.7500 Du        
    975 ****        23.5000  22.5000  62.0000 Du        
    976 ****        23.5000  22.5000  62.2500 Du        
    977 ****        23.5000  22.5000  62.5000 Du        
    978 ****        23.5000  22.5000  62.7500 Du        
    979 ****        23.5000  22.7500  61.0000 Du        
    980 ****        23.5000  22.7500  61.2500 Du        
    981 ****        23.5000  22.7500  61.5000 Du        
    982 ****        23.5000  22.7500  61.7500 Du        
    983 ****        23.5000  22.7500  62.0000 Du        
    984 ****        23.5000  22.7500  62.2500 Du        
    985 ****        23.5000  22.7500  62.5000 Du        
    986 ****        23.5000  23.0000  60.2500 Du        
    987 ****        23.5000  23.0000  60.5000 Du        
    988 ****        23.5000  23.0000  60.7500 Du        
    989 ****        23.5000  23.0000  61.0000 Du        
    990 ****        23.5000  23.0000  61.2500 Du        
    991 ****        23.5000  23.0000  61.5000 Du        
    992 ****        23.5000  23.0000  61.7500 Du        
    993 ****        23.5000  23.0000  62.0000 Du        
    994 ****        23.5000  23.0000  62.2500 Du        
    995 ****        23.5000  23.0000  62.5000 Du        
    996 ****        23.5000  23.2500  60.0000 Du        
    997 ****        23.5000  23.2500  60.2500 Du        
    998 ****        23.5000  23.2500  60.5000 Du        
    999 ****        23.5000  23.2500  60.7500 Du        
   1000 ****        23.5000  23.2500  61.0000 Du        
   1001 ****        23.5000  23.2500  61.2500 Du        
   1002 ****        23.5000  23.2500  61.5000 Du        
   1003 ****        23.5000  23.2500  61.7500 Du        
   1004 ****        23.5000  23.2500  62.0000 Du        
   1005 ****        23.5000  23.2500  62.2500 Du        
   1006 ****        23.5000  23.5000  60.7500 Du        
   1007 ****        23.5000  23.5000  61.0000 Du        
   1008 ****        23.5000  23.5000  61.2500 Du        
   1009 ****        23.5000  23.5000  61.5000 Du        
   1010 ****        23.5000  23.5000  61.7500 Du        
   1011 ****        23.5000  23.5000  62.0000 Du        
   1012 ****        23.5000  23.5000  62.2500 Du        
   1013 ****        23.5000  23.7500  61.5000 Du        
   1014 ****        23.5000  23.7500  61.7500 Du        
   1015 ****        23.5000  23.7500  62.0000 Du        
   1016 ****        23.5000  23.7500  62.2500 Du        
   1017 ****        23.7500  18.2500  63.0000 Du        
   1018 ****        23.7500  18.2500  63.2500 Du        
   1019 ****        23.7500  18.2500  63.5000 Du        
   1020 ****        23.7500  18.5000  62.7500 Du        
   1021 ****        23.7500  18.5000  63.0000 Du        
   1022 ****        23.7500  18.5000  63.2500 Du        
   1023 ****        23.7500  18.5000  63.5000 Du        
   1024 ****        23.7500  18.5000  63.7500 Du        
   1025 ****        23.7500  18.5000  64.0000 Du        
   1026 ****        23.7500  18.7500  62.5000 Du        
   1027 ****        23.7500  18.7500  62.7500 Du        
   1028 ****        23.7500  18.7500  63.0000 Du        
   1029 ****        23.7500  18.7500  63.2500 Du        
   1030 ****        23.7500  18.7500  63.5000 Du        
   1031 ****        23.7500  18.7500  63.7500 Du        
   1032 ****        23.7500  18.7500  64.0000 Du        
   1033 ****        23.7500  18.7500  64.2500 Du        
   1034 ****        23.7500  19.0000  62.2500 Du        
   1035 ****        23.7500  19.0000  62.5000 Du        
   1036 ****        23.7500  19.0000  62.7500 Du        
   1037 ****        23.7500  19.0000  63.0000 Du        
   1038 ****        23.7500  19.0000  63.2500 Du        
   1039 ****        23.7500  19.0000  63.5000 Du        
   1040 ****        23.7500  19.0000  63.7500 Du        
   1041 ****        23.7500  19.0000  64.0000 Du        
   1042 ****        23.7500  19.0000  64.2500 Du        
   1043 ****        23.7500  19.0000  64.5000 Du        
   1044 ****        23.7500  19.0000  64.7500 Du        
   1045 ****        23.7500  19.2500  61.7500 Du        
   1046 ****        23.7500  19.2500  62.0000 Du        
   1047 ****        23.7500  19.2500  62.2500 Du        
   1048 ****        23.7500  19.2500  62.5000 Du        
   1049 ****        23.7500  19.2500  62.7500 Du        
   1050 ****        23.7500  19.2500  63.0000 Du        
   1051 ****        23.7500  19.2500  63.2500 Du        
   1052 ****        23.7500  19.2500  63.5000 Du        
   1053 ****        23.7500  19.2500  63.7500 Du        
   1054 ****        23.7500  19.2500  64.0000 Du        
   1055 ****        23.7500  19.2500  64.2500 Du        
   1056 ****        23.7500  19.2500  64.5000 Du        
   1057 ****        23.7500  19.2500  64.7500 Du        
   1058 ****        23.7500  19.2500  65.0000 Du        
   1059 ****        23.7500  19.2500  65.2500 Du        
   1060 ****        23.7500  19.5000  61.7500 Du        
   1061 ****        23.7500  19.5000  62.0000 Du        
   1062 ****        23.7500  19.5000  62.2500 Du        
   1063 ****        23.7500  19.5000  62.5000 Du        
   1064 ****        23.7500  19.5000  62.7500 Du        
   1065 ****        23.7500  19.5000  63.0000 Du        
   1066 ****        23.7500  19.5000  63.2500 Du        
   1067 ****        23.7500  19.5000  63.5000 Du        
   1068 ****        23.7500  19.5000  63.7500 Du        
   1069 ****        23.7500  19.5000  64.0000 Du        
   1070 ****        23.7500  19.5000  64.2500 Du        
   1071 ****        23.7500  19.5000  64.5000 Du        
   1072 ****        23.7500  19.5000  64.7500 Du        
   1073 ****        23.7500  19.5000  65.0000 Du        
   1074 ****        23.7500  19.5000  65.2500 Du        
   1075 ****        23.7500  19.5000  65.5000 Du        
   1076 ****        23.7500  19.5000  65.7500 Du        
   1077 ****        23.7500  19.7500  61.7500 Du        
   1078 ****        23.7500  19.7500  62.0000 Du        
   1079 ****        23.7500  19.7500  62.2500 Du        
   1080 ****        23.7500  19.7500  62.5000 Du        
   1081 ****        23.7500  19.7500  62.7500 Du        
   1082 ****        23.7500  19.7500  63.0000 Du        
   1083 ****        23.7500  19.7500  63.2500 Du        
   1084 ****        23.7500  19.7500  63.5000 Du        
   1085 ****        23.7500  19.7500  63.7500 Du        
   1086 ****        23.7500  19.7500  64.0000 Du        
   1087 ****        23.7500  19.7500  64.2500 Du        
   1088 ****        23.7500  19.7500  64.5000 Du        
   1089 ****        23.7500  19.7500  64.7500 Du        
   1090 ****        23.7500  19.7500  65.0000 Du        
   1091 ****        23.7500  19.7500  65.2500 Du        
   1092 ****        23.7500  19.7500  65.5000 Du        
   1093 ****        23.7500  19.7500  65.7500 Du        
   1094 ****        23.7500  19.7500  66.0000 Du        
   1095 ****        23.7500  20.0000  61.7500 Du        
   1096 ****        23.7500  20.0000  62.0000 Du        
   1097 ****        23.7500  20.0000  62.2500 Du        
   1098 ****        23.7500  20.0000  62.5000 Du        
   1099 ****        23.7500  20.0000  62.7500 Du        
   1100 ****        23.7500  20.0000  63.0000 Du        
   1101 ****        23.7500  20.0000  63.2500 Du        
   1102 ****        23.7500  20.0000  63.5000 Du        
   1103 ****        23.7500  20.0000  63.7500 Du        
   1104 ****        23.7500  20.0000  64.0000 Du        
   1105 ****        23.7500  20.0000  64.2500 Du        
   1106 ****        23.7500  20.0000  64.5000 Du        
   1107 ****        23.7500  20.0000  64.7500 Du        
   1108 ****        23.7500  20.0000  65.0000 Du        
   1109 ****        23.7500  20.0000  65.2500 Du        
   1110 ****        23.7500  20.0000  65.5000 Du        
   1111 ****        23.7500  20.0000  65.7500 Du        
   1112 ****        23.7500  20.2500  62.0000 Du        
   1113 ****        23.7500  20.2500  62.2500 Du        
   1114 ****        23.7500  20.2500  62.5000 Du        
   1115 ****        23.7500  20.2500  62.7500 Du        
   1116 ****        23.7500  20.2500  63.0000 Du        
   1117 ****        23.7500  20.2500  63.2500 Du        
   1118 ****        23.7500  20.2500  63.5000 Du        
   1119 ****        23.7500  20.2500  63.7500 Du        
   1120 ****        23.7500  20.2500  64.0000 Du        
   1121 ****        23.7500  20.2500  64.2500 Du        
   1122 ****        23.7500  20.2500  64.5000 Du        
   1123 ****        23.7500  20.2500  64.7500 Du        
   1124 ****        23.7500  20.2500  65.0000 Du        
   1125 ****        23.7500  20.2500  65.2500 Du        
   1126 ****        23.7500  20.5000  62.0000 Du        
   1127 ****        23.7500  20.5000  62.2500 Du        
   1128 ****        23.7500  20.5000  62.5000 Du        
   1129 ****        23.7500  20.5000  62.7500 Du        
   1130 ****        23.7500  20.5000  63.0000 Du        
   1131 ****        23.7500  20.5000  63.2500 Du        
   1132 ****        23.7500  20.5000  63.5000 Du        
   1133 ****        23.7500  20.5000  63.7500 Du        
   1134 ****        23.7500  20.5000  64.0000 Du        
   1135 ****        23.7500  20.5000  64.2500 Du        
   1136 ****        23.7500  20.5000  64.5000 Du        
   1137 ****        23.7500  20.5000  64.7500 Du        
   1138 ****        23.7500  20.7500  62.0000 Du        
   1139 ****        23.7500  20.7500  62.2500 Du        
   1140 ****        23.7500  20.7500  62.5000 Du        
   1141 ****        23.7500  20.7500  62.7500 Du        
   1142 ****        23.7500  20.7500  63.0000 Du        
   1143 ****        23.7500  20.7500  63.2500 Du        
   1144 ****        23.7500  20.7500  63.5000 Du        
   1145 ****        23.7500  20.7500  63.7500 Du        
   1146 ****        23.7500  20.7500  64.0000 Du        
   1147 ****        23.7500  20.7500  64.2500 Du        
   1148 ****        23.7500  21.0000  62.0000 Du        
   1149 ****        23.7500  21.0000  62.2500 Du        
   1150 ****        23.7500  21.0000  62.5000 Du        
   1151 ****        23.7500  21.0000  62.7500 Du        
   1152 ****        23.7500  21.0000  63.0000 Du        
   1153 ****        23.7500  21.0000  63.2500 Du        
   1154 ****        23.7500  21.0000  63.5000 Du        
   1155 ****        23.7500  21.0000  63.7500 Du        
   1156 ****        23.7500  21.0000  64.0000 Du        
   1157 ****        23.7500  21.2500  62.0000 Du        
   1158 ****        23.7500  21.2500  62.2500 Du        
   1159 ****        23.7500  21.2500  62.5000 Du        
   1160 ****        23.7500  21.2500  62.7500 Du        
   1161 ****        23.7500  21.2500  63.0000 Du        
   1162 ****        23.7500  21.2500  63.2500 Du        
   1163 ****        23.7500  21.2500  63.5000 Du        
   1164 ****        23.7500  21.2500  63.7500 Du        
   1165 ****        23.7500  21.5000  62.0000 Du        
   1166 ****        23.7500  21.5000  62.2500 Du        
   1167 ****        23.7500  21.5000  62.5000 Du        
   1168 ****        23.7500  21.5000  62.7500 Du        
   1169 ****        23.7500  21.5000  63.0000 Du        
   1170 ****        23.7500  21.5000  63.2500 Du        
   1171 ****        23.7500  21.5000  63.5000 Du        
   1172 ****        23.7500  21.7500  61.7500 Du        
   1173 ****        23.7500  21.7500  62.0000 Du        
   1174 ****        23.7500  21.7500  62.2500 Du        
   1175 ****        23.7500  21.7500  62.5000 Du        
   1176 ****        23.7500  21.7500  62.7500 Du        
   1177 ****        23.7500  21.7500  63.0000 Du        
   1178 ****        23.7500  21.7500  63.2500 Du        
   1179 ****        23.7500  21.7500  63.5000 Du        
   1180 ****        23.7500  22.0000  61.5000 Du        
   1181 ****        23.7500  22.0000  61.7500 Du        
   1182 ****        23.7500  22.0000  62.0000 Du        
   1183 ****        23.7500  22.0000  62.2500 Du        
   1184 ****        23.7500  22.0000  62.5000 Du        
   1185 ****        23.7500  22.0000  62.7500 Du        
   1186 ****        23.7500  22.0000  63.0000 Du        
   1187 ****        23.7500  22.0000  63.2500 Du        
   1188 ****        23.7500  22.2500  61.2500 Du        
   1189 ****        23.7500  22.2500  61.5000 Du        
   1190 ****        23.7500  22.2500  61.7500 Du        
   1191 ****        23.7500  22.2500  62.0000 Du        
   1192 ****        23.7500  22.2500  62.2500 Du        
   1193 ****        23.7500  22.2500  62.5000 Du        
   1194 ****        23.7500  22.2500  62.7500 Du        
   1195 ****        23.7500  22.2500  63.0000 Du        
   1196 ****        23.7500  22.5000  61.0000 Du        
   1197 ****        23.7500  22.5000  61.2500 Du        
   1198 ****        23.7500  22.5000  61.5000 Du        
   1199 ****        23.7500  22.5000  61.7500 Du        
   1200 ****        23.7500  22.5000  62.0000 Du        
   1201 ****        23.7500  22.5000  62.2500 Du        
   1202 ****        23.7500  22.5000  62.5000 Du        
   1203 ****        23.7500  22.5000  62.7500 Du        
   1204 ****        23.7500  22.7500  60.5000 Du        
   1205 ****        23.7500  22.7500  60.7500 Du        
   1206 ****        23.7500  22.7500  61.0000 Du        
   1207 ****        23.7500  22.7500  61.2500 Du        
   1208 ****        23.7500  22.7500  61.5000 Du        
   1209 ****        23.7500  22.7500  61.7500 Du        
   1210 ****        23.7500  22.7500  62.0000 Du        
   1211 ****        23.7500  22.7500  62.2500 Du        
   1212 ****        23.7500  22.7500  62.5000 Du        
   1213 ****        23.7500  23.0000  59.7500 Du        
   1214 ****        23.7500  23.0000  60.0000 Du        
   1215 ****        23.7500  23.0000  60.2500 Du        
   1216 ****        23.7500  23.0000  60.5000 Du        
   1217 ****        23.7500  23.0000  60.7500 Du        
   1218 ****        23.7500  23.0000  61.0000 Du        
   1219 ****        23.7500  23.0000  61.2500 Du        
   1220 ****        23.7500  23.0000  61.5000 Du        
   1221 ****        23.7500  23.0000  61.7500 Du        
   1222 ****        23.7500  23.0000  62.0000 Du        
   1223 ****        23.7500  23.0000  62.2500 Du        
   1224 ****        23.7500  23.0000  62.5000 Du        
   1225 ****        23.7500  23.2500  59.5000 Du        
   1226 ****        23.7500  23.2500  59.7500 Du        
   1227 ****        23.7500  23.2500  60.0000 Du        
   1228 ****        23.7500  23.2500  60.2500 Du        
   1229 ****        23.7500  23.2500  60.5000 Du        
   1230 ****        23.7500  23.2500  60.7500 Du        
   1231 ****        23.7500  23.2500  61.0000 Du        
   1232 ****        23.7500  23.2500  61.2500 Du        
   1233 ****        23.7500  23.2500  61.5000 Du        
   1234 ****        23.7500  23.2500  61.7500 Du        
   1235 ****        23.7500  23.2500  62.0000 Du        
   1236 ****        23.7500  23.2500  62.2500 Du        
   1237 ****        23.7500  23.5000  60.0000 Du        
   1238 ****        23.7500  23.5000  60.2500 Du        
   1239 ****        23.7500  23.5000  60.5000 Du        
   1240 ****        23.7500  23.5000  60.7500 Du        
   1241 ****        23.7500  23.5000  61.0000 Du        
   1242 ****        23.7500  23.5000  61.2500 Du        
   1243 ****        23.7500  23.5000  61.5000 Du        
   1244 ****        23.7500  23.5000  61.7500 Du        
   1245 ****        23.7500  23.5000  62.0000 Du        
   1246 ****        23.7500  23.5000  62.2500 Du        
   1247 ****        23.7500  23.7500  61.0000 Du        
   1248 ****        23.7500  23.7500  61.2500 Du        
   1249 ****        23.7500  23.7500  61.5000 Du        
   1250 ****        23.7500  23.7500  61.7500 Du        
   1251 ****        23.7500  23.7500  62.0000 Du        
   1252 ****        23.7500  23.7500  62.2500 Du        
   1253 ****        23.7500  24.0000  61.7500 Du        
   1254 ****        23.7500  24.0000  62.0000 Du        
   1255 ****        24.0000  18.5000  63.0000 Du        
   1256 ****        24.0000  18.5000  63.2500 Du        
   1257 ****        24.0000  18.5000  63.5000 Du        
   1258 ****        24.0000  18.5000  63.7500 Du        
   1259 ****        24.0000  18.7500  62.7500 Du        
   1260 ****        24.0000  18.7500  63.0000 Du        
   1261 ****        24.0000  18.7500  63.2500 Du        
   1262 ****        24.0000  18.7500  63.5000 Du        
   1263 ****        24.0000  18.7500  63.7500 Du        
   1264 ****        24.0000  18.7500  64.0000 Du        
   1265 ****        24.0000  18.7500  64.2500 Du        
   1266 ****        24.0000  19.0000  62.7500 Du        
   1267 ****        24.0000  19.0000  63.0000 Du        
   1268 ****        24.0000  19.0000  63.2500 Du        
   1269 ****        24.0000  19.0000  63.5000 Du        
   1270 ****        24.0000  19.0000  63.7500 Du        
   1271 ****        24.0000  19.0000  64.0000 Du        
   1272 ****        24.0000  19.0000  64.2500 Du        
   1273 ****        24.0000  19.0000  64.5000 Du        
   1274 ****        24.0000  19.0000  64.7500 Du        
   1275 ****        24.0000  19.2500  62.2500 Du        
   1276 ****        24.0000  19.2500  62.5000 Du        
   1277 ****        24.0000  19.2500  62.7500 Du        
   1278 ****        24.0000  19.2500  63.0000 Du        
   1279 ****        24.0000  19.2500  63.2500 Du        
   1280 ****        24.0000  19.2500  63.5000 Du        
   1281 ****        24.0000  19.2500  63.7500 Du        
   1282 ****        24.0000  19.2500  64.0000 Du        
   1283 ****        24.0000  19.2500  64.2500 Du        
   1284 ****        24.0000  19.2500  64.5000 Du        
   1285 ****        24.0000  19.2500  64.7500 Du        
   1286 ****        24.0000  19.2500  65.0000 Du        
   1287 ****        24.0000  19.2500  65.2500 Du        
   1288 ****        24.0000  19.5000  62.0000 Du        
   1289 ****        24.0000  19.5000  62.2500 Du        
   1290 ****        24.0000  19.5000  62.5000 Du        
   1291 ****        24.0000  19.5000  62.7500 Du        
   1292 ****        24.0000  19.5000  63.0000 Du        
   1293 ****        24.0000  19.5000  63.2500 Du        
   1294 ****        24.0000  19.5000  63.5000 Du        
   1295 ****        24.0000  19.5000  63.7500 Du        
   1296 ****        24.0000  19.5000  64.0000 Du        
   1297 ****        24.0000  19.5000  64.2500 Du        
   1298 ****        24.0000  19.5000  64.5000 Du        
   1299 ****        24.0000  19.5000  64.7500 Du        
   1300 ****        24.0000  19.5000  65.0000 Du        
   1301 ****        24.0000  19.5000  65.2500 Du        
   1302 ****        24.0000  19.5000  65.5000 Du        
   1303 ****        24.0000  19.5000  65.7500 Du        
   1304 ****        24.0000  19.7500  61.7500 Du        
   1305 ****        24.0000  19.7500  62.0000 Du        
   1306 ****        24.0000  19.7500  62.2500 Du        
   1307 ****        24.0000  19.7500  62.5000 Du        
   1308 ****        24.0000  19.7500  62.7500 Du        
   1309 ****        24.0000  19.7500  63.0000 Du        
   1310 ****        24.0000  19.7500  63.2500 Du        
   1311 ****        24.0000  19.7500  63.5000 Du        
   1312 ****        24.0000  19.7500  63.7500 Du        
   1313 ****        24.0000  19.7500  64.0000 Du        
   1314 ****        24.0000  19.7500  64.2500 Du        
   1315 ****        24.0000  19.7500  64.5000 Du        
   1316 ****        24.0000  19.7500  64.7500 Du        
   1317 ****        24.0000  19.7500  65.0000 Du        
   1318 ****        24.0000  19.7500  65.2500 Du        
   1319 ****        24.0000  19.7500  65.5000 Du        
   1320 ****        24.0000  19.7500  65.7500 Du        
   1321 ****        24.0000  19.7500  66.0000 Du        
   1322 ****        24.0000  19.7500  66.2500 Du        
   1323 ****        24.0000  20.0000  61.7500 Du        
   1324 ****        24.0000  20.0000  62.0000 Du        
   1325 ****        24.0000  20.0000  62.2500 Du        
   1326 ****        24.0000  20.0000  62.5000 Du        
   1327 ****        24.0000  20.0000  62.7500 Du        
   1328 ****        24.0000  20.0000  63.0000 Du        
   1329 ****        24.0000  20.0000  63.2500 Du        
   1330 ****        24.0000  20.0000  63.5000 Du        
   1331 ****        24.0000  20.0000  63.7500 Du        
   1332 ****        24.0000  20.0000  64.0000 Du        
   1333 ****        24.0000  20.0000  64.2500 Du        
   1334 ****        24.0000  20.0000  64.5000 Du        
   1335 ****        24.0000  20.0000  64.7500 Du        
   1336 ****        24.0000  20.0000  65.0000 Du        
   1337 ****        24.0000  20.0000  65.2500 Du        
   1338 ****        24.0000  20.0000  65.5000 Du        
   1339 ****        24.0000  20.0000  65.7500 Du        
   1340 ****        24.0000  20.0000  66.0000 Du        
   1341 ****        24.0000  20.0000  66.2500 Du        
   1342 ****        24.0000  20.2500  61.7500 Du        
   1343 ****        24.0000  20.2500  62.0000 Du        
   1344 ****        24.0000  20.2500  62.2500 Du        
   1345 ****        24.0000  20.2500  62.5000 Du        
   1346 ****        24.0000  20.2500  62.7500 Du        
   1347 ****        24.0000  20.2500  63.0000 Du        
   1348 ****        24.0000  20.2500  63.2500 Du        
   1349 ****        24.0000  20.2500  63.5000 Du        
   1350 ****        24.0000  20.2500  63.7500 Du        
   1351 ****        24.0000  20.2500  64.0000 Du        
   1352 ****        24.0000  20.2500  64.2500 Du        
   1353 ****        24.0000  20.2500  64.5000 Du        
   1354 ****        24.0000  20.2500  64.7500 Du        
   1355 ****        24.0000  20.2500  65.0000 Du        
   1356 ****        24.0000  20.2500  65.2500 Du        
   1357 ****        24.0000  20.2500  65.5000 Du        
   1358 ****        24.0000  20.5000  61.7500 Du        
   1359 ****        24.0000  20.5000  62.0000 Du        
   1360 ****        24.0000  20.5000  62.2500 Du        
   1361 ****        24.0000  20.5000  62.5000 Du        
   1362 ****        24.0000  20.5000  62.7500 Du        
   1363 ****        24.0000  20.5000  63.0000 Du        
   1364 ****        24.0000  20.5000  63.2500 Du        
   1365 ****        24.0000  20.5000  63.5000 Du        
   1366 ****        24.0000  20.5000  63.7500 Du        
   1367 ****        24.0000  20.5000  64.0000 Du        
   1368 ****        24.0000  20.5000  64.2500 Du        
   1369 ****        24.0000  20.5000  64.5000 Du        
   1370 ****        24.0000  20.5000  64.7500 Du        
   1371 ****        24.0000  20.5000  65.0000 Du        
   1372 ****        24.0000  20.7500  61.7500 Du        
   1373 ****        24.0000  20.7500  62.0000 Du        
   1374 ****        24.0000  20.7500  62.2500 Du        
   1375 ****        24.0000  20.7500  62.5000 Du        
   1376 ****        24.0000  20.7500  62.7500 Du        
   1377 ****        24.0000  20.7500  63.0000 Du        
   1378 ****        24.0000  20.7500  63.2500 Du        
   1379 ****        24.0000  20.7500  63.5000 Du        
   1380 ****        24.0000  20.7500  63.7500 Du        
   1381 ****        24.0000  20.7500  64.0000 Du        
   1382 ****        24.0000  20.7500  64.2500 Du        
   1383 ****        24.0000  20.7500  64.5000 Du        
   1384 ****        24.0000  21.0000  61.7500 Du        
   1385 ****        24.0000  21.0000  62.0000 Du        
   1386 ****        24.0000  21.0000  62.2500 Du        
   1387 ****        24.0000  21.0000  62.5000 Du        
   1388 ****        24.0000  21.0000  62.7500 Du        
   1389 ****        24.0000  21.0000  63.0000 Du        
   1390 ****        24.0000  21.0000  63.2500 Du        
   1391 ****        24.0000  21.0000  63.5000 Du        
   1392 ****        24.0000  21.0000  63.7500 Du        
   1393 ****        24.0000  21.0000  64.0000 Du        
   1394 ****        24.0000  21.0000  64.2500 Du        
   1395 ****        24.0000  21.2500  61.7500 Du        
   1396 ****        24.0000  21.2500  62.0000 Du        
   1397 ****        24.0000  21.2500  62.2500 Du        
   1398 ****        24.0000  21.2500  62.5000 Du        
   1399 ****        24.0000  21.2500  62.7500 Du        
   1400 ****        24.0000  21.2500  63.0000 Du        
   1401 ****        24.0000  21.2500  63.2500 Du        
   1402 ****        24.0000  21.2500  63.5000 Du        
   1403 ****        24.0000  21.2500  63.7500 Du        
   1404 ****        24.0000  21.2500  64.0000 Du        
   1405 ****        24.0000  21.5000  61.7500 Du        
   1406 ****        24.0000  21.5000  62.0000 Du        
   1407 ****        24.0000  21.5000  62.2500 Du        
   1408 ****        24.0000  21.5000  62.5000 Du        
   1409 ****        24.0000  21.5000  62.7500 Du        
   1410 ****        24.0000  21.5000  63.0000 Du        
   1411 ****        24.0000  21.5000  63.2500 Du        
   1412 ****        24.0000  21.5000  63.5000 Du        
   1413 ****        24.0000  21.5000  63.7500 Du        
   1414 ****        24.0000  21.7500  61.5000 Du        
   1415 ****        24.0000  21.7500  61.7500 Du        
   1416 ****        24.0000  21.7500  62.0000 Du        
   1417 ****        24.0000  21.7500  62.2500 Du        
   1418 ****        24.0000  21.7500  62.5000 Du        
   1419 ****        24.0000  21.7500  62.7500 Du        
   1420 ****        24.0000  21.7500  63.0000 Du        
   1421 ****        24.0000  21.7500  63.2500 Du        
   1422 ****        24.0000  21.7500  63.5000 Du        
   1423 ****        24.0000  22.0000  61.2500 Du        
   1424 ****        24.0000  22.0000  61.5000 Du        
   1425 ****        24.0000  22.0000  61.7500 Du        
   1426 ****        24.0000  22.0000  62.0000 Du        
   1427 ****        24.0000  22.0000  62.2500 Du        
   1428 ****        24.0000  22.0000  62.5000 Du        
   1429 ****        24.0000  22.0000  62.7500 Du        
   1430 ****        24.0000  22.0000  63.0000 Du        
   1431 ****        24.0000  22.0000  63.2500 Du        
   1432 ****        24.0000  22.2500  61.0000 Du        
   1433 ****        24.0000  22.2500  61.2500 Du        
   1434 ****        24.0000  22.2500  61.5000 Du        
   1435 ****        24.0000  22.2500  61.7500 Du        
   1436 ****        24.0000  22.2500  62.0000 Du        
   1437 ****        24.0000  22.2500  62.2500 Du        
   1438 ****        24.0000  22.2500  62.5000 Du        
   1439 ****        24.0000  22.2500  62.7500 Du        
   1440 ****        24.0000  22.2500  63.0000 Du        
   1441 ****        24.0000  22.5000  60.7500 Du        
   1442 ****        24.0000  22.5000  61.0000 Du        
   1443 ****        24.0000  22.5000  61.2500 Du        
   1444 ****        24.0000  22.5000  61.5000 Du        
   1445 ****        24.0000  22.5000  61.7500 Du        
   1446 ****        24.0000  22.5000  62.0000 Du        
   1447 ****        24.0000  22.5000  62.2500 Du        
   1448 ****        24.0000  22.5000  62.5000 Du        
   1449 ****        24.0000  22.5000  62.7500 Du        
   1450 ****        24.0000  22.7500  60.2500 Du        
   1451 ****        24.0000  22.7500  60.5000 Du        
   1452 ****        24.0000  22.7500  60.7500 Du        
   1453 ****        24.0000  22.7500  61.0000 Du        
   1454 ****        24.0000  22.7500  61.2500 Du        
   1455 ****        24.0000  22.7500  61.5000 Du        
   1456 ****        24.0000  22.7500  61.7500 Du        
   1457 ****        24.0000  22.7500  62.0000 Du        
   1458 ****        24.0000  22.7500  62.2500 Du        
   1459 ****        24.0000  22.7500  62.5000 Du        
   1460 ****        24.0000  23.0000  59.7500 Du        
   1461 ****        24.0000  23.0000  60.0000 Du        
   1462 ****        24.0000  23.0000  60.2500 Du        
   1463 ****        24.0000  23.0000  60.5000 Du        
   1464 ****        24.0000  23.0000  60.7500 Du        
   1465 ****        24.0000  23.0000  61.0000 Du        
   1466 ****        24.0000  23.0000  61.2500 Du        
   1467 ****        24.0000  23.0000  61.5000 Du        
   1468 ****        24.0000  23.0000  61.7500 Du        
   1469 ****        24.0000  23.0000  62.0000 Du        
   1470 ****        24.0000  23.0000  62.2500 Du        
   1471 ****        24.0000  23.0000  62.5000 Du        
   1472 ****        24.0000  23.2500  59.2500 Du        
   1473 ****        24.0000  23.2500  59.5000 Du        
   1474 ****        24.0000  23.2500  59.7500 Du        
   1475 ****        24.0000  23.2500  60.0000 Du        
   1476 ****        24.0000  23.2500  60.2500 Du        
   1477 ****        24.0000  23.2500  60.5000 Du        
   1478 ****        24.0000  23.2500  60.7500 Du        
   1479 ****        24.0000  23.2500  61.0000 Du        
   1480 ****        24.0000  23.2500  61.2500 Du        
   1481 ****        24.0000  23.2500  61.5000 Du        
   1482 ****        24.0000  23.2500  61.7500 Du        
   1483 ****        24.0000  23.2500  62.0000 Du        
   1484 ****        24.0000  23.2500  62.2500 Du        
   1485 ****        24.0000  23.5000  59.7500 Du        
   1486 ****        24.0000  23.5000  60.0000 Du        
   1487 ****        24.0000  23.5000  60.2500 Du        
   1488 ****        24.0000  23.5000  60.5000 Du        
   1489 ****        24.0000  23.5000  60.7500 Du        
   1490 ****        24.0000  23.5000  61.0000 Du        
   1491 ****        24.0000  23.5000  61.2500 Du        
   1492 ****        24.0000  23.5000  61.5000 Du        
   1493 ****        24.0000  23.5000  61.7500 Du        
   1494 ****        24.0000  23.5000  62.0000 Du        
   1495 ****        24.0000  23.5000  62.2500 Du        
   1496 ****        24.0000  23.7500  60.2500 Du        
   1497 ****        24.0000  23.7500  60.5000 Du        
   1498 ****        24.0000  23.7500  60.7500 Du        
   1499 ****        24.0000  23.7500  61.0000 Du        
   1500 ****        24.0000  23.7500  61.2500 Du        
   1501 ****        24.0000  23.7500  61.5000 Du        
   1502 ****        24.0000  23.7500  61.7500 Du        
   1503 ****        24.0000  23.7500  62.0000 Du        
   1504 ****        24.0000  23.7500  62.2500 Du        
   1505 ****        24.0000  24.0000  61.2500 Du        
   1506 ****        24.0000  24.0000  61.5000 Du        
   1507 ****        24.0000  24.0000  61.7500 Du        
   1508 ****        24.0000  24.0000  62.0000 Du        
   1509 ****        24.2500  18.5000  63.5000 Du        
   1510 ****        24.2500  18.5000  63.7500 Du        
   1511 ****        24.2500  18.7500  63.2500 Du        
   1512 ****        24.2500  18.7500  63.5000 Du        
   1513 ****        24.2500  18.7500  63.7500 Du        
   1514 ****        24.2500  18.7500  64.0000 Du        
   1515 ****        24.2500  18.7500  64.2500 Du        
   1516 ****        24.2500  19.0000  63.0000 Du        
   1517 ****        24.2500  19.0000  63.2500 Du        
   1518 ****        24.2500  19.0000  63.5000 Du        
   1519 ****        24.2500  19.0000  63.7500 Du        
   1520 ****        24.2500  19.0000  64.0000 Du        
   1521 ****        24.2500  19.0000  64.2500 Du        
   1522 ****        24.2500  19.0000  64.5000 Du        
   1523 ****        24.2500  19.2500  62.7500 Du        
   1524 ****        24.2500  19.2500  63.0000 Du        
   1525 ****        24.2500  19.2500  63.2500 Du        
   1526 ****        24.2500  19.2500  63.5000 Du        
   1527 ****        24.2500  19.2500  63.7500 Du        
   1528 ****        24.2500  19.2500  64.0000 Du        
   1529 ****        24.2500  19.2500  64.2500 Du        
   1530 ****        24.2500  19.2500  64.5000 Du        
   1531 ****        24.2500  19.2500  64.7500 Du        
   1532 ****        24.2500  19.2500  65.0000 Du        
   1533 ****        24.2500  19.5000  62.5000 Du        
   1534 ****        24.2500  19.5000  62.7500 Du        
   1535 ****        24.2500  19.5000  63.0000 Du        
   1536 ****        24.2500  19.5000  63.2500 Du        
   1537 ****        24.2500  19.5000  63.5000 Du        
   1538 ****        24.2500  19.5000  63.7500 Du        
   1539 ****        24.2500  19.5000  64.0000 Du        
   1540 ****        24.2500  19.5000  64.2500 Du        
   1541 ****        24.2500  19.5000  64.5000 Du        
   1542 ****        24.2500  19.5000  64.7500 Du        
   1543 ****        24.2500  19.5000  65.0000 Du        
   1544 ****        24.2500  19.5000  65.2500 Du        
   1545 ****        24.2500  19.5000  65.5000 Du        
   1546 ****        24.2500  19.7500  62.0000 Du        
   1547 ****        24.2500  19.7500  62.2500 Du        
   1548 ****        24.2500  19.7500  62.5000 Du        
   1549 ****        24.2500  19.7500  62.7500 Du        
   1550 ****        24.2500  19.7500  63.0000 Du        
   1551 ****        24.2500  19.7500  63.2500 Du        
   1552 ****        24.2500  19.7500  63.5000 Du        
   1553 ****        24.2500  19.7500  63.7500 Du        
   1554 ****        24.2500  19.7500  64.0000 Du        
   1555 ****        24.2500  19.7500  64.2500 Du        
   1556 ****        24.2500  19.7500  64.5000 Du        
   1557 ****        24.2500  19.7500  64.7500 Du        
   1558 ****        24.2500  19.7500  65.0000 Du        
   1559 ****        24.2500  19.7500  65.2500 Du        
   1560 ****        24.2500  19.7500  65.5000 Du        
   1561 ****        24.2500  19.7500  65.7500 Du        
   1562 ****        24.2500  19.7500  66.0000 Du        
   1563 ****        24.2500  19.7500  66.2500 Du        
   1564 ****        24.2500  20.0000  61.7500 Du        
   1565 ****        24.2500  20.0000  62.0000 Du        
   1566 ****        24.2500  20.0000  62.2500 Du        
   1567 ****        24.2500  20.0000  62.5000 Du        
   1568 ****        24.2500  20.0000  62.7500 Du        
   1569 ****        24.2500  20.0000  63.0000 Du        
   1570 ****        24.2500  20.0000  63.2500 Du        
   1571 ****        24.2500  20.0000  63.5000 Du        
   1572 ****        24.2500  20.0000  63.7500 Du        
   1573 ****        24.2500  20.0000  64.0000 Du        
   1574 ****        24.2500  20.0000  64.2500 Du        
   1575 ****        24.2500  20.0000  64.5000 Du        
   1576 ****        24.2500  20.0000  64.7500 Du        
   1577 ****        24.2500  20.0000  65.0000 Du        
   1578 ****        24.2500  20.0000  65.2500 Du        
   1579 ****        24.2500  20.0000  65.5000 Du        
   1580 ****        24.2500  20.0000  65.7500 Du        
   1581 ****        24.2500  20.0000  66.0000 Du        
   1582 ****        24.2500  20.0000  66.2500 Du        
   1583 ****        24.2500  20.2500  61.7500 Du        
   1584 ****        24.2500  20.2500  62.0000 Du        
   1585 ****        24.2500  20.2500  62.2500 Du        
   1586 ****        24.2500  20.2500  62.5000 Du        
   1587 ****        24.2500  20.2500  62.7500 Du        
   1588 ****        24.2500  20.2500  63.0000 Du        
   1589 ****        24.2500  20.2500  63.2500 Du        
   1590 ****        24.2500  20.2500  63.5000 Du        
   1591 ****        24.2500  20.2500  63.7500 Du        
   1592 ****        24.2500  20.2500  64.0000 Du        
   1593 ****        24.2500  20.2500  64.2500 Du        
   1594 ****        24.2500  20.2500  64.5000 Du        
   1595 ****        24.2500  20.2500  64.7500 Du        
   1596 ****        24.2500  20.2500  65.0000 Du        
   1597 ****        24.2500  20.2500  65.2500 Du        
   1598 ****        24.2500  20.2500  65.5000 Du        
   1599 ****        24.2500  20.2500  65.7500 Du        
   1600 ****        24.2500  20.5000  61.7500 Du        
   1601 ****        24.2500  20.5000  62.0000 Du        
   1602 ****        24.2500  20.5000  62.2500 Du        
   1603 ****        24.2500  20.5000  62.5000 Du        
   1604 ****        24.2500  20.5000  62.7500 Du        
   1605 ****        24.2500  20.5000  63.0000 Du        
   1606 ****        24.2500  20.5000  63.2500 Du        
   1607 ****        24.2500  20.5000  63.5000 Du        
   1608 ****        24.2500  20.5000  63.7500 Du        
   1609 ****        24.2500  20.5000  64.0000 Du        
   1610 ****        24.2500  20.5000  64.2500 Du        
   1611 ****        24.2500  20.5000  64.5000 Du        
   1612 ****        24.2500  20.5000  64.7500 Du        
   1613 ****        24.2500  20.5000  65.0000 Du        
   1614 ****        24.2500  20.7500  61.7500 Du        
   1615 ****        24.2500  20.7500  62.0000 Du        
   1616 ****        24.2500  20.7500  62.2500 Du        
   1617 ****        24.2500  20.7500  62.5000 Du        
   1618 ****        24.2500  20.7500  62.7500 Du        
   1619 ****        24.2500  20.7500  63.0000 Du        
   1620 ****        24.2500  20.7500  63.2500 Du        
   1621 ****        24.2500  20.7500  63.5000 Du        
   1622 ****        24.2500  20.7500  63.7500 Du        
   1623 ****        24.2500  20.7500  64.0000 Du        
   1624 ****        24.2500  20.7500  64.2500 Du        
   1625 ****        24.2500  20.7500  64.5000 Du        
   1626 ****        24.2500  20.7500  64.7500 Du        
   1627 ****        24.2500  21.0000  61.5000 Du        
   1628 ****        24.2500  21.0000  61.7500 Du        
   1629 ****        24.2500  21.0000  62.0000 Du        
   1630 ****        24.2500  21.0000  62.2500 Du        
   1631 ****        24.2500  21.0000  62.5000 Du        
   1632 ****        24.2500  21.0000  62.7500 Du        
   1633 ****        24.2500  21.0000  63.0000 Du        
   1634 ****        24.2500  21.0000  63.2500 Du        
   1635 ****        24.2500  21.0000  63.5000 Du        
   1636 ****        24.2500  21.0000  63.7500 Du        
   1637 ****        24.2500  21.0000  64.0000 Du        
   1638 ****        24.2500  21.0000  64.2500 Du        
   1639 ****        24.2500  21.2500  61.5000 Du        
   1640 ****        24.2500  21.2500  61.7500 Du        
   1641 ****        24.2500  21.2500  62.0000 Du        
   1642 ****        24.2500  21.2500  62.2500 Du        
   1643 ****        24.2500  21.2500  62.5000 Du        
   1644 ****        24.2500  21.2500  62.7500 Du        
   1645 ****        24.2500  21.2500  63.0000 Du        
   1646 ****        24.2500  21.2500  63.2500 Du        
   1647 ****        24.2500  21.2500  63.5000 Du        
   1648 ****        24.2500  21.2500  63.7500 Du        
   1649 ****        24.2500  21.2500  64.0000 Du        
   1650 ****        24.2500  21.5000  61.5000 Du        
   1651 ****        24.2500  21.5000  61.7500 Du        
   1652 ****        24.2500  21.5000  62.0000 Du        
   1653 ****        24.2500  21.5000  62.2500 Du        
   1654 ****        24.2500  21.5000  62.5000 Du        
   1655 ****        24.2500  21.5000  62.7500 Du        
   1656 ****        24.2500  21.5000  63.0000 Du        
   1657 ****        24.2500  21.5000  63.2500 Du        
   1658 ****        24.2500  21.5000  63.5000 Du        
   1659 ****        24.2500  21.5000  63.7500 Du        
   1660 ****        24.2500  21.7500  61.2500 Du        
   1661 ****        24.2500  21.7500  61.5000 Du        
   1662 ****        24.2500  21.7500  61.7500 Du        
   1663 ****        24.2500  21.7500  62.0000 Du        
   1664 ****        24.2500  21.7500  62.2500 Du        
   1665 ****        24.2500  21.7500  62.5000 Du        
   1666 ****        24.2500  21.7500  62.7500 Du        
   1667 ****        24.2500  21.7500  63.0000 Du        
   1668 ****        24.2500  21.7500  63.2500 Du        
   1669 ****        24.2500  21.7500  63.5000 Du        
   1670 ****        24.2500  22.0000  61.2500 Du        
   1671 ****        24.2500  22.0000  61.5000 Du        
   1672 ****        24.2500  22.0000  61.7500 Du        
   1673 ****        24.2500  22.0000  62.0000 Du        
   1674 ****        24.2500  22.0000  62.2500 Du        
   1675 ****        24.2500  22.0000  62.5000 Du        
   1676 ****        24.2500  22.0000  62.7500 Du        
   1677 ****        24.2500  22.0000  63.0000 Du        
   1678 ****        24.2500  22.0000  63.2500 Du        
   1679 ****        24.2500  22.2500  61.0000 Du        
   1680 ****        24.2500  22.2500  61.2500 Du        
   1681 ****        24.2500  22.2500  61.5000 Du        
   1682 ****        24.2500  22.2500  61.7500 Du        
   1683 ****        24.2500  22.2500  62.0000 Du        
   1684 ****        24.2500  22.2500  62.2500 Du        
   1685 ****        24.2500  22.2500  62.5000 Du        
   1686 ****        24.2500  22.2500  62.7500 Du        
   1687 ****        24.2500  22.2500  63.0000 Du        
   1688 ****        24.2500  22.5000  60.7500 Du        
   1689 ****        24.2500  22.5000  61.0000 Du        
   1690 ****        24.2500  22.5000  61.2500 Du        
   1691 ****        24.2500  22.5000  61.5000 Du        
   1692 ****        24.2500  22.5000  61.7500 Du        
   1693 ****        24.2500  22.5000  62.0000 Du        
   1694 ****        24.2500  22.5000  62.2500 Du        
   1695 ****        24.2500  22.5000  62.5000 Du        
   1696 ****        24.2500  22.5000  62.7500 Du        
   1697 ****        24.2500  22.7500  60.2500 Du        
   1698 ****        24.2500  22.7500  60.5000 Du        
   1699 ****        24.2500  22.7500  60.7500 Du        
   1700 ****        24.2500  22.7500  61.0000 Du        
   1701 ****        24.2500  22.7500  61.2500 Du        
   1702 ****        24.2500  22.7500  61.5000 Du        
   1703 ****        24.2500  22.7500  61.7500 Du        
   1704 ****        24.2500  22.7500  62.0000 Du        
   1705 ****        24.2500  22.7500  62.2500 Du        
   1706 ****        24.2500  22.7500  62.5000 Du        
   1707 ****        24.2500  22.7500  62.7500 Du        
   1708 ****        24.2500  23.0000  60.0000 Du        
   1709 ****        24.2500  23.0000  60.2500 Du        
   1710 ****        24.2500  23.0000  60.5000 Du        
   1711 ****        24.2500  23.0000  60.7500 Du        
   1712 ****        24.2500  23.0000  61.0000 Du        
   1713 ****        24.2500  23.0000  61.2500 Du        
   1714 ****        24.2500  23.0000  61.5000 Du        
   1715 ****        24.2500  23.0000  61.7500 Du        
   1716 ****        24.2500  23.0000  62.0000 Du        
   1717 ****        24.2500  23.0000  62.2500 Du        
   1718 ****        24.2500  23.0000  62.5000 Du        
   1719 ****        24.2500  23.2500  59.2500 Du        
   1720 ****        24.2500  23.2500  59.5000 Du        
   1721 ****        24.2500  23.2500  59.7500 Du        
   1722 ****        24.2500  23.2500  60.0000 Du        
   1723 ****        24.2500  23.2500  60.2500 Du        
   1724 ****        24.2500  23.2500  60.5000 Du        
   1725 ****        24.2500  23.2500  60.7500 Du        
   1726 ****        24.2500  23.2500  61.0000 Du        
   1727 ****        24.2500  23.2500  61.2500 Du        
   1728 ****        24.2500  23.2500  61.5000 Du        
   1729 ****        24.2500  23.2500  61.7500 Du        
   1730 ****        24.2500  23.2500  62.0000 Du        
   1731 ****        24.2500  23.2500  62.2500 Du        
   1732 ****        24.2500  23.5000  59.0000 Du        
   1733 ****        24.2500  23.5000  59.2500 Du        
   1734 ****        24.2500  23.5000  59.5000 Du        
   1735 ****        24.2500  23.5000  59.7500 Du        
   1736 ****        24.2500  23.5000  60.0000 Du        
   1737 ****        24.2500  23.5000  60.2500 Du        
   1738 ****        24.2500  23.5000  60.5000 Du        
   1739 ****        24.2500  23.5000  60.7500 Du        
   1740 ****        24.2500  23.5000  61.0000 Du        
   1741 ****        24.2500  23.5000  61.2500 Du        
   1742 ****        24.2500  23.5000  61.5000 Du        
   1743 ****        24.2500  23.5000  61.7500 Du        
   1744 ****        24.2500  23.5000  62.0000 Du        
   1745 ****        24.2500  23.5000  62.2500 Du        
   1746 ****        24.2500  23.7500  59.7500 Du        
   1747 ****        24.2500  23.7500  60.0000 Du        
   1748 ****        24.2500  23.7500  60.2500 Du        
   1749 ****        24.2500  23.7500  60.5000 Du        
   1750 ****        24.2500  23.7500  60.7500 Du        
   1751 ****        24.2500  23.7500  61.0000 Du        
   1752 ****        24.2500  23.7500  61.2500 Du        
   1753 ****        24.2500  23.7500  61.5000 Du        
   1754 ****        24.2500  23.7500  61.7500 Du        
   1755 ****        24.2500  23.7500  62.0000 Du        
   1756 ****        24.2500  24.0000  60.7500 Du        
   1757 ****        24.2500  24.0000  61.0000 Du        
   1758 ****        24.2500  24.0000  61.2500 Du        
   1759 ****        24.2500  24.0000  61.5000 Du        
   1760 ****        24.2500  24.0000  61.7500 Du        
   1761 ****        24.2500  24.0000  62.0000 Du        
   1762 ****        24.5000  18.7500  63.7500 Du        
   1763 ****        24.5000  19.0000  63.2500 Du        
   1764 ****        24.5000  19.0000  63.5000 Du        
   1765 ****        24.5000  19.0000  63.7500 Du        
   1766 ****        24.5000  19.0000  64.0000 Du        
   1767 ****        24.5000  19.0000  64.2500 Du        
   1768 ****        24.5000  19.0000  64.5000 Du        
   1769 ****        24.5000  19.2500  63.2500 Du        
   1770 ****        24.5000  19.2500  63.5000 Du        
   1771 ****        24.5000  19.2500  63.7500 Du        
   1772 ****        24.5000  19.2500  64.0000 Du        
   1773 ****        24.5000  19.2500  64.2500 Du        
   1774 ****        24.5000  19.2500  64.5000 Du        
   1775 ****        24.5000  19.2500  64.7500 Du        
   1776 ****        24.5000  19.5000  63.0000 Du        
   1777 ****        24.5000  19.5000  63.2500 Du        
   1778 ****        24.5000  19.5000  63.5000 Du        
   1779 ****        24.5000  19.5000  63.7500 Du        
   1780 ****        24.5000  19.5000  64.0000 Du        
   1781 ****        24.5000  19.5000  64.2500 Du        
   1782 ****        24.5000  19.5000  64.5000 Du        
   1783 ****        24.5000  19.5000  64.7500 Du        
   1784 ****        24.5000  19.5000  65.0000 Du        
   1785 ****        24.5000  19.5000  65.2500 Du        
   1786 ****        24.5000  19.7500  62.7500 Du        
   1787 ****        24.5000  19.7500  63.0000 Du        
   1788 ****        24.5000  19.7500  63.2500 Du        
   1789 ****        24.5000  19.7500  63.5000 Du        
   1790 ****        24.5000  19.7500  63.7500 Du        
   1791 ****        24.5000  19.7500  64.0000 Du        
   1792 ****        24.5000  19.7500  64.2500 Du        
   1793 ****        24.5000  19.7500  64.5000 Du        
   1794 ****        24.5000  19.7500  64.7500 Du        
   1795 ****        24.5000  19.7500  65.0000 Du        
   1796 ****        24.5000  19.7500  65.2500 Du        
   1797 ****        24.5000  19.7500  65.5000 Du        
   1798 ****        24.5000  19.7500  65.7500 Du        
   1799 ****        24.5000  20.0000  62.2500 Du        
   1800 ****        24.5000  20.0000  62.5000 Du        
   1801 ****        24.5000  20.0000  62.7500 Du        
   1802 ****        24.5000  20.0000  63.0000 Du        
   1803 ****        24.5000  20.0000  63.2500 Du        
   1804 ****        24.5000  20.0000  63.5000 Du        
   1805 ****        24.5000  20.0000  63.7500 Du        
   1806 ****        24.5000  20.0000  64.0000 Du        
   1807 ****        24.5000  20.0000  64.2500 Du        
   1808 ****        24.5000  20.0000  64.5000 Du        
   1809 ****        24.5000  20.0000  64.7500 Du        
   1810 ****        24.5000  20.0000  65.0000 Du        
   1811 ****        24.5000  20.0000  65.2500 Du        
   1812 ****        24.5000  20.0000  65.5000 Du        
   1813 ****        24.5000  20.0000  65.7500 Du        
   1814 ****        24.5000  20.0000  66.0000 Du        
   1815 ****        24.5000  20.0000  66.2500 Du        
   1816 ****        24.5000  20.2500  61.7500 Du        
   1817 ****        24.5000  20.2500  62.0000 Du        
   1818 ****        24.5000  20.2500  62.2500 Du        
   1819 ****        24.5000  20.2500  62.5000 Du        
   1820 ****        24.5000  20.2500  62.7500 Du        
   1821 ****        24.5000  20.2500  63.0000 Du        
   1822 ****        24.5000  20.2500  63.2500 Du        
   1823 ****        24.5000  20.2500  63.5000 Du        
   1824 ****        24.5000  20.2500  63.7500 Du        
   1825 ****        24.5000  20.2500  64.0000 Du        
   1826 ****        24.5000  20.2500  64.2500 Du        
   1827 ****        24.5000  20.2500  64.5000 Du        
   1828 ****        24.5000  20.2500  64.7500 Du        
   1829 ****        24.5000  20.2500  65.0000 Du        
   1830 ****        24.5000  20.2500  65.2500 Du        
   1831 ****        24.5000  20.2500  65.5000 Du        
   1832 ****        24.5000  20.2500  65.7500 Du        
   1833 ****        24.5000  20.5000  61.7500 Du        
   1834 ****        24.5000  20.5000  62.0000 Du        
   1835 ****        24.5000  20.5000  62.2500 Du        
   1836 ****        24.5000  20.5000  62.5000 Du        
   1837 ****        24.5000  20.5000  62.7500 Du        
   1838 ****        24.5000  20.5000  63.0000 Du        
   1839 ****        24.5000  20.5000  63.2500 Du        
   1840 ****        24.5000  20.5000  63.5000 Du        
   1841 ****        24.5000  20.5000  63.7500 Du        
   1842 ****        24.5000  20.5000  64.0000 Du        
   1843 ****        24.5000  20.5000  64.2500 Du        
   1844 ****        24.5000  20.5000  64.5000 Du        
   1845 ****        24.5000  20.5000  64.7500 Du        
   1846 ****        24.5000  20.5000  65.0000 Du        
   1847 ****        24.5000  20.7500  61.7500 Du        
   1848 ****        24.5000  20.7500  62.0000 Du        
   1849 ****        24.5000  20.7500  62.2500 Du        
   1850 ****        24.5000  20.7500  62.5000 Du        
   1851 ****        24.5000  20.7500  62.7500 Du        
   1852 ****        24.5000  20.7500  63.0000 Du        
   1853 ****        24.5000  20.7500  63.2500 Du        
   1854 ****        24.5000  20.7500  63.5000 Du        
   1855 ****        24.5000  20.7500  63.7500 Du        
   1856 ****        24.5000  20.7500  64.0000 Du        
   1857 ****        24.5000  20.7500  64.2500 Du        
   1858 ****        24.5000  20.7500  64.5000 Du        
   1859 ****        24.5000  20.7500  64.7500 Du        
   1860 ****        24.5000  21.0000  61.7500 Du        
   1861 ****        24.5000  21.0000  62.0000 Du        
   1862 ****        24.5000  21.0000  62.2500 Du        
   1863 ****        24.5000  21.0000  62.5000 Du        
   1864 ****        24.5000  21.0000  62.7500 Du        
   1865 ****        24.5000  21.0000  63.0000 Du        
   1866 ****        24.5000  21.0000  63.2500 Du        
   1867 ****        24.5000  21.0000  63.5000 Du        
   1868 ****        24.5000  21.0000  63.7500 Du        
   1869 ****        24.5000  21.0000  64.0000 Du        
   1870 ****        24.5000  21.0000  64.2500 Du        
   1871 ****        24.5000  21.2500  61.7500 Du        
   1872 ****        24.5000  21.2500  62.0000 Du        
   1873 ****        24.5000  21.2500  62.2500 Du        
   1874 ****        24.5000  21.2500  62.5000 Du        
   1875 ****        24.5000  21.2500  62.7500 Du        
   1876 ****        24.5000  21.2500  63.0000 Du        
   1877 ****        24.5000  21.2500  63.2500 Du        
   1878 ****        24.5000  21.2500  63.5000 Du        
   1879 ****        24.5000  21.2500  63.7500 Du        
   1880 ****        24.5000  21.2500  64.0000 Du        
   1881 ****        24.5000  21.5000  61.5000 Du        
   1882 ****        24.5000  21.5000  61.7500 Du        
   1883 ****        24.5000  21.5000  62.0000 Du        
   1884 ****        24.5000  21.5000  62.2500 Du        
   1885 ****        24.5000  21.5000  62.5000 Du        
   1886 ****        24.5000  21.5000  62.7500 Du        
   1887 ****        24.5000  21.5000  63.0000 Du        
   1888 ****        24.5000  21.5000  63.2500 Du        
   1889 ****        24.5000  21.5000  63.5000 Du        
   1890 ****        24.5000  21.5000  63.7500 Du        
   1891 ****        24.5000  21.7500  61.2500 Du        
   1892 ****        24.5000  21.7500  61.5000 Du        
   1893 ****        24.5000  21.7500  61.7500 Du        
   1894 ****        24.5000  21.7500  62.0000 Du        
   1895 ****        24.5000  21.7500  62.2500 Du        
   1896 ****        24.5000  21.7500  62.5000 Du        
   1897 ****        24.5000  21.7500  62.7500 Du        
   1898 ****        24.5000  21.7500  63.0000 Du        
   1899 ****        24.5000  21.7500  63.2500 Du        
   1900 ****        24.5000  21.7500  63.5000 Du        
   1901 ****        24.5000  22.0000  61.2500 Du        
   1902 ****        24.5000  22.0000  61.5000 Du        
   1903 ****        24.5000  22.0000  61.7500 Du        
   1904 ****        24.5000  22.0000  62.0000 Du        
   1905 ****        24.5000  22.0000  62.2500 Du        
   1906 ****        24.5000  22.0000  62.5000 Du        
   1907 ****        24.5000  22.0000  62.7500 Du        
   1908 ****        24.5000  22.0000  63.0000 Du        
   1909 ****        24.5000  22.0000  63.2500 Du        
   1910 ****        24.5000  22.2500  61.0000 Du        
   1911 ****        24.5000  22.2500  61.2500 Du        
   1912 ****        24.5000  22.2500  61.5000 Du        
   1913 ****        24.5000  22.2500  61.7500 Du        
   1914 ****        24.5000  22.2500  62.0000 Du        
   1915 ****        24.5000  22.2500  62.2500 Du        
   1916 ****        24.5000  22.2500  62.5000 Du        
   1917 ****        24.5000  22.2500  62.7500 Du        
   1918 ****        24.5000  22.2500  63.0000 Du        
   1919 ****        24.5000  22.5000  61.0000 Du        
   1920 ****        24.5000  22.5000  61.2500 Du        
   1921 ****        24.5000  22.5000  61.5000 Du        
   1922 ****        24.5000  22.5000  61.7500 Du        
   1923 ****        24.5000  22.5000  62.0000 Du        
   1924 ****        24.5000  22.5000  62.2500 Du        
   1925 ****        24.5000  22.5000  62.5000 Du        
   1926 ****        24.5000  22.7500  60.5000 Du        
   1927 ****        24.5000  22.7500  60.7500 Du        
   1928 ****        24.5000  22.7500  61.0000 Du        
   1929 ****        24.5000  22.7500  61.2500 Du        
   1930 ****        24.5000  22.7500  61.5000 Du        
   1931 ****        24.5000  22.7500  61.7500 Du        
   1932 ****        24.5000  22.7500  62.0000 Du        
   1933 ****        24.5000  22.7500  62.2500 Du        
   1934 ****        24.5000  22.7500  62.5000 Du        
   1935 ****        24.5000  23.0000  60.2500 Du        
   1936 ****        24.5000  23.0000  60.5000 Du        
   1937 ****        24.5000  23.0000  60.7500 Du        
   1938 ****        24.5000  23.0000  61.0000 Du        
   1939 ****        24.5000  23.0000  61.2500 Du        
   1940 ****        24.5000  23.0000  61.5000 Du        
   1941 ****        24.5000  23.0000  61.7500 Du        
   1942 ****        24.5000  23.0000  62.0000 Du        
   1943 ****        24.5000  23.0000  62.2500 Du        
   1944 ****        24.5000  23.2500  59.7500 Du        
   1945 ****        24.5000  23.2500  60.0000 Du        
   1946 ****        24.5000  23.2500  60.2500 Du        
   1947 ****        24.5000  23.2500  60.5000 Du        
   1948 ****        24.5000  23.2500  60.7500 Du        
   1949 ****        24.5000  23.2500  61.0000 Du        
   1950 ****        24.5000  23.2500  61.2500 Du        
   1951 ****        24.5000  23.2500  61.5000 Du        
   1952 ****        24.5000  23.2500  61.7500 Du        
   1953 ****        24.5000  23.2500  62.0000 Du        
   1954 ****        24.5000  23.2500  62.2500 Du        
   1955 ****        24.5000  23.5000  59.0000 Du        
   1956 ****        24.5000  23.5000  59.2500 Du        
   1957 ****        24.5000  23.5000  59.5000 Du        
   1958 ****        24.5000  23.5000  59.7500 Du        
   1959 ****        24.5000  23.5000  60.0000 Du        
   1960 ****        24.5000  23.5000  60.2500 Du        
   1961 ****        24.5000  23.5000  60.5000 Du        
   1962 ****        24.5000  23.5000  60.7500 Du        
   1963 ****        24.5000  23.5000  61.0000 Du        
   1964 ****        24.5000  23.5000  61.2500 Du        
   1965 ****        24.5000  23.5000  61.5000 Du        
   1966 ****        24.5000  23.5000  61.7500 Du        
   1967 ****        24.5000  23.5000  62.0000 Du        
   1968 ****        24.5000  23.7500  59.2500 Du        
   1969 ****        24.5000  23.7500  59.5000 Du        
   1970 ****        24.5000  23.7500  59.7500 Du        
   1971 ****        24.5000  23.7500  60.0000 Du        
   1972 ****        24.5000  23.7500  60.2500 Du        
   1973 ****        24.5000  23.7500  60.5000 Du        
   1974 ****        24.5000  23.7500  60.7500 Du        
   1975 ****        24.5000  23.7500  61.0000 Du        
   1976 ****        24.5000  23.7500  61.2500 Du        
   1977 ****        24.5000  23.7500  61.5000 Du        
   1978 ****        24.5000  23.7500  61.7500 Du        
   1979 ****        24.5000  24.0000  60.2500 Du        
   1980 ****        24.5000  24.0000  60.5000 Du        
   1981 ****        24.5000  24.0000  60.7500 Du        
   1982 ****        24.5000  24.0000  61.0000 Du        
   1983 ****        24.5000  24.0000  61.2500 Du        
   1984 ****        24.5000  24.0000  61.5000 Du        
   1985 ****        24.5000  24.0000  61.7500 Du        
   1986 ****        24.7500  19.0000  63.7500 Du        
   1987 ****        24.7500  19.0000  64.0000 Du        
   1988 ****        24.7500  19.0000  64.2500 Du        
   1989 ****        24.7500  19.2500  63.5000 Du        
   1990 ****        24.7500  19.2500  63.7500 Du        
   1991 ****        24.7500  19.2500  64.0000 Du        
   1992 ****        24.7500  19.2500  64.2500 Du        
   1993 ****        24.7500  19.2500  64.5000 Du        
   1994 ****        24.7500  19.2500  64.7500 Du        
   1995 ****        24.7500  19.5000  63.2500 Du        
   1996 ****        24.7500  19.5000  63.5000 Du        
   1997 ****        24.7500  19.5000  63.7500 Du        
   1998 ****        24.7500  19.5000  64.0000 Du        
   1999 ****        24.7500  19.5000  64.2500 Du        
   2000 ****        24.7500  19.5000  64.5000 Du        
   2001 ****        24.7500  19.5000  64.7500 Du        
   2002 ****        24.7500  19.5000  65.0000 Du        
   2003 ****        24.7500  19.7500  63.0000 Du        
   2004 ****        24.7500  19.7500  63.2500 Du        
   2005 ****        24.7500  19.7500  63.5000 Du        
   2006 ****        24.7500  19.7500  63.7500 Du        
   2007 ****        24.7500  19.7500  64.0000 Du        
   2008 ****        24.7500  19.7500  64.2500 Du        
   2009 ****        24.7500  19.7500  64.5000 Du        
   2010 ****        24.7500  19.7500  64.7500 Du        
   2011 ****        24.7500  19.7500  65.0000 Du        
   2012 ****        24.7500  19.7500  65.2500 Du        
   2013 ****        24.7500  19.7500  65.5000 Du        
   2014 ****        24.7500  20.0000  62.7500 Du        
   2015 ****        24.7500  20.0000  63.0000 Du        
   2016 ****        24.7500  20.0000  63.2500 Du        
   2017 ****        24.7500  20.0000  63.5000 Du        
   2018 ****        24.7500  20.0000  63.7500 Du        
   2019 ****        24.7500  20.0000  64.0000 Du        
   2020 ****        24.7500  20.0000  64.2500 Du        
   2021 ****        24.7500  20.0000  64.5000 Du        
   2022 ****        24.7500  20.0000  64.7500 Du        
   2023 ****        24.7500  20.0000  65.0000 Du        
   2024 ****        24.7500  20.0000  65.2500 Du        
   2025 ****        24.7500  20.0000  65.5000 Du        
   2026 ****        24.7500  20.0000  65.7500 Du        
   2027 ****        24.7500  20.0000  66.0000 Du        
   2028 ****        24.7500  20.2500  62.2500 Du        
   2029 ****        24.7500  20.2500  62.5000 Du        
   2030 ****        24.7500  20.2500  62.7500 Du        
   2031 ****        24.7500  20.2500  63.0000 Du        
   2032 ****        24.7500  20.2500  63.2500 Du        
   2033 ****        24.7500  20.2500  63.5000 Du        
   2034 ****        24.7500  20.2500  63.7500 Du        
   2035 ****        24.7500  20.2500  64.0000 Du        
   2036 ****        24.7500  20.2500  64.2500 Du        
   2037 ****        24.7500  20.2500  64.5000 Du        
   2038 ****        24.7500  20.2500  64.7500 Du        
   2039 ****        24.7500  20.2500  65.0000 Du        
   2040 ****        24.7500  20.2500  65.2500 Du        
   2041 ****        24.7500  20.2500  65.5000 Du        
   2042 ****        24.7500  20.2500  65.7500 Du        
   2043 ****        24.7500  20.2500  66.0000 Du        
   2044 ****        24.7500  20.5000  62.0000 Du        
   2045 ****        24.7500  20.5000  62.2500 Du        
   2046 ****        24.7500  20.5000  62.5000 Du        
   2047 ****        24.7500  20.5000  62.7500 Du        
   2048 ****        24.7500  20.5000  63.0000 Du        
   2049 ****        24.7500  20.5000  63.2500 Du        
   2050 ****        24.7500  20.5000  63.5000 Du        
   2051 ****        24.7500  20.5000  63.7500 Du        
   2052 ****        24.7500  20.5000  64.0000 Du        
   2053 ****        24.7500  20.5000  64.2500 Du        
   2054 ****        24.7500  20.5000  64.5000 Du        
   2055 ****        24.7500  20.5000  64.7500 Du        
   2056 ****        24.7500  20.5000  65.0000 Du        
   2057 ****        24.7500  20.5000  65.2500 Du        
   2058 ****        24.7500  20.7500  61.7500 Du        
   2059 ****        24.7500  20.7500  62.0000 Du        
   2060 ****        24.7500  20.7500  62.2500 Du        
   2061 ****        24.7500  20.7500  62.5000 Du        
   2062 ****        24.7500  20.7500  62.7500 Du        
   2063 ****        24.7500  20.7500  63.0000 Du        
   2064 ****        24.7500  20.7500  63.2500 Du        
   2065 ****        24.7500  20.7500  63.5000 Du        
   2066 ****        24.7500  20.7500  63.7500 Du        
   2067 ****        24.7500  20.7500  64.0000 Du        
   2068 ****        24.7500  20.7500  64.2500 Du        
   2069 ****        24.7500  20.7500  64.5000 Du        
   2070 ****        24.7500  20.7500  64.7500 Du        
   2071 ****        24.7500  21.0000  61.7500 Du        
   2072 ****        24.7500  21.0000  62.0000 Du        
   2073 ****        24.7500  21.0000  62.2500 Du        
   2074 ****        24.7500  21.0000  62.5000 Du        
   2075 ****        24.7500  21.0000  62.7500 Du        
   2076 ****        24.7500  21.0000  63.0000 Du        
   2077 ****        24.7500  21.0000  63.2500 Du        
   2078 ****        24.7500  21.0000  63.5000 Du        
   2079 ****        24.7500  21.0000  63.7500 Du        
   2080 ****        24.7500  21.0000  64.0000 Du        
   2081 ****        24.7500  21.0000  64.2500 Du        
   2082 ****        24.7500  21.0000  64.5000 Du        
   2083 ****        24.7500  21.2500  61.5000 Du        
   2084 ****        24.7500  21.2500  61.7500 Du        
   2085 ****        24.7500  21.2500  62.0000 Du        
   2086 ****        24.7500  21.2500  62.2500 Du        
   2087 ****        24.7500  21.2500  62.5000 Du        
   2088 ****        24.7500  21.2500  62.7500 Du        
   2089 ****        24.7500  21.2500  63.0000 Du        
   2090 ****        24.7500  21.2500  63.2500 Du        
   2091 ****        24.7500  21.2500  63.5000 Du        
   2092 ****        24.7500  21.2500  63.7500 Du        
   2093 ****        24.7500  21.2500  64.0000 Du        
   2094 ****        24.7500  21.2500  64.2500 Du        
   2095 ****        24.7500  21.5000  61.5000 Du        
   2096 ****        24.7500  21.5000  61.7500 Du        
   2097 ****        24.7500  21.5000  62.0000 Du        
   2098 ****        24.7500  21.5000  62.2500 Du        
   2099 ****        24.7500  21.5000  62.5000 Du        
   2100 ****        24.7500  21.5000  62.7500 Du        
   2101 ****        24.7500  21.5000  63.0000 Du        
   2102 ****        24.7500  21.5000  63.2500 Du        
   2103 ****        24.7500  21.5000  63.5000 Du        
   2104 ****        24.7500  21.5000  63.7500 Du        
   2105 ****        24.7500  21.5000  64.0000 Du        
   2106 ****        24.7500  21.7500  61.5000 Du        
   2107 ****        24.7500  21.7500  61.7500 Du        
   2108 ****        24.7500  21.7500  62.0000 Du        
   2109 ****        24.7500  21.7500  62.2500 Du        
   2110 ****        24.7500  21.7500  62.5000 Du        
   2111 ****        24.7500  21.7500  62.7500 Du        
   2112 ****        24.7500  21.7500  63.0000 Du        
   2113 ****        24.7500  21.7500  63.2500 Du        
   2114 ****        24.7500  21.7500  63.5000 Du        
   2115 ****        24.7500  21.7500  63.7500 Du        
   2116 ****        24.7500  22.0000  61.2500 Du        
   2117 ****        24.7500  22.0000  61.5000 Du        
   2118 ****        24.7500  22.0000  61.7500 Du        
   2119 ****        24.7500  22.0000  62.0000 Du        
   2120 ****        24.7500  22.0000  62.2500 Du        
   2121 ****        24.7500  22.0000  62.5000 Du        
   2122 ****        24.7500  22.0000  62.7500 Du        
   2123 ****        24.7500  22.0000  63.0000 Du        
   2124 ****        24.7500  22.0000  63.2500 Du        
   2125 ****        24.7500  22.2500  61.0000 Du        
   2126 ****        24.7500  22.2500  61.2500 Du        
   2127 ****        24.7500  22.2500  61.5000 Du        
   2128 ****        24.7500  22.2500  61.7500 Du        
   2129 ****        24.7500  22.2500  62.0000 Du        
   2130 ****        24.7500  22.2500  62.2500 Du        
   2131 ****        24.7500  22.2500  62.5000 Du        
   2132 ****        24.7500  22.2500  62.7500 Du        
   2133 ****        24.7500  22.2500  63.0000 Du        
   2134 ****        24.7500  22.2500  63.2500 Du        
   2135 ****        24.7500  22.5000  61.0000 Du        
   2136 ****        24.7500  22.5000  61.2500 Du        
   2137 ****        24.7500  22.5000  61.5000 Du        
   2138 ****        24.7500  22.5000  61.7500 Du        
   2139 ****        24.7500  22.5000  62.0000 Du        
   2140 ****        24.7500  22.5000  62.2500 Du        
   2141 ****        24.7500  22.5000  62.5000 Du        
   2142 ****        24.7500  22.5000  62.7500 Du        
   2143 ****        24.7500  22.7500  60.7500 Du        
   2144 ****        24.7500  22.7500  61.0000 Du        
   2145 ****        24.7500  22.7500  61.2500 Du        
   2146 ****        24.7500  22.7500  61.5000 Du        
   2147 ****        24.7500  22.7500  61.7500 Du        
   2148 ****        24.7500  22.7500  62.0000 Du        
   2149 ****        24.7500  22.7500  62.2500 Du        
   2150 ****        24.7500  22.7500  62.5000 Du        
   2151 ****        24.7500  23.0000  60.2500 Du        
   2152 ****        24.7500  23.0000  60.5000 Du        
   2153 ****        24.7500  23.0000  60.7500 Du        
   2154 ****        24.7500  23.0000  61.0000 Du        
   2155 ****        24.7500  23.0000  61.2500 Du        
   2156 ****        24.7500  23.0000  61.5000 Du        
   2157 ****        24.7500  23.0000  61.7500 Du        
   2158 ****        24.7500  23.0000  62.0000 Du        
   2159 ****        24.7500  23.0000  62.2500 Du        
   2160 ****        24.7500  23.2500  60.0000 Du        
   2161 ****        24.7500  23.2500  60.2500 Du        
   2162 ****        24.7500  23.2500  60.5000 Du        
   2163 ****        24.7500  23.2500  60.7500 Du        
   2164 ****        24.7500  23.2500  61.0000 Du        
   2165 ****        24.7500  23.2500  61.2500 Du        
   2166 ****        24.7500  23.2500  61.5000 Du        
   2167 ****        24.7500  23.2500  61.7500 Du        
   2168 ****        24.7500  23.2500  62.0000 Du        
   2169 ****        24.7500  23.2500  62.2500 Du        
   2170 ****        24.7500  23.5000  59.2500 Du        
   2171 ****        24.7500  23.5000  59.5000 Du        
   2172 ****        24.7500  23.5000  59.7500 Du        
   2173 ****        24.7500  23.5000  60.0000 Du        
   2174 ****        24.7500  23.5000  60.2500 Du        
   2175 ****        24.7500  23.5000  60.5000 Du        
   2176 ****        24.7500  23.5000  60.7500 Du        
   2177 ****        24.7500  23.5000  61.0000 Du        
   2178 ****        24.7500  23.5000  61.2500 Du        
   2179 ****        24.7500  23.5000  61.5000 Du        
   2180 ****        24.7500  23.5000  61.7500 Du        
   2181 ****        24.7500  23.5000  62.0000 Du        
   2182 ****        24.7500  23.7500  58.7500 Du        
   2183 ****        24.7500  23.7500  59.0000 Du        
   2184 ****        24.7500  23.7500  59.2500 Du        
   2185 ****        24.7500  23.7500  59.5000 Du        
   2186 ****        24.7500  23.7500  59.7500 Du        
   2187 ****        24.7500  23.7500  60.0000 Du        
   2188 ****        24.7500  23.7500  60.2500 Du        
   2189 ****        24.7500  23.7500  60.5000 Du        
   2190 ****        24.7500  23.7500  60.7500 Du        
   2191 ****        24.7500  23.7500  61.0000 Du        
   2192 ****        24.7500  23.7500  61.2500 Du        
   2193 ****        24.7500  23.7500  61.5000 Du        
   2194 ****        24.7500  23.7500  61.7500 Du        
   2195 ****        24.7500  23.7500  62.0000 Du        
   2196 ****        24.7500  24.0000  59.2500 Du        
   2197 ****        24.7500  24.0000  59.5000 Du        
   2198 ****        24.7500  24.0000  59.7500 Du        
   2199 ****        24.7500  24.0000  60.0000 Du        
   2200 ****        24.7500  24.0000  60.2500 Du        
   2201 ****        24.7500  24.0000  60.5000 Du        
   2202 ****        24.7500  24.0000  60.7500 Du        
   2203 ****        24.7500  24.0000  61.0000 Du        
   2204 ****        24.7500  24.0000  61.2500 Du        
   2205 ****        24.7500  24.0000  61.5000 Du        
   2206 ****        24.7500  24.0000  61.7500 Du        
   2207 ****        24.7500  24.2500  61.0000 Du        
   2208 ****        24.7500  24.2500  61.2500 Du        
   2209 ****        25.0000  19.2500  63.7500 Du        
   2210 ****        25.0000  19.2500  64.0000 Du        
   2211 ****        25.0000  19.2500  64.2500 Du        
   2212 ****        25.0000  19.2500  64.5000 Du        
   2213 ****        25.0000  19.5000  63.5000 Du        
   2214 ****        25.0000  19.5000  63.7500 Du        
   2215 ****        25.0000  19.5000  64.0000 Du        
   2216 ****        25.0000  19.5000  64.2500 Du        
   2217 ****        25.0000  19.5000  64.5000 Du        
   2218 ****        25.0000  19.5000  64.7500 Du        
   2219 ****        25.0000  19.7500  63.2500 Du        
   2220 ****        25.0000  19.7500  63.5000 Du        
   2221 ****        25.0000  19.7500  63.7500 Du        
   2222 ****        25.0000  19.7500  64.0000 Du        
   2223 ****        25.0000  19.7500  64.2500 Du        
   2224 ****        25.0000  19.7500  64.5000 Du        
   2225 ****        25.0000  19.7500  64.7500 Du        
   2226 ****        25.0000  19.7500  65.0000 Du        
   2227 ****        25.0000  20.0000  63.0000 Du        
   2228 ****        25.0000  20.0000  63.2500 Du        
   2229 ****        25.0000  20.0000  63.5000 Du        
   2230 ****        25.0000  20.0000  63.7500 Du        
   2231 ****        25.0000  20.0000  64.0000 Du        
   2232 ****        25.0000  20.0000  64.2500 Du        
   2233 ****        25.0000  20.0000  64.5000 Du        
   2234 ****        25.0000  20.0000  64.7500 Du        
   2235 ****        25.0000  20.0000  65.0000 Du        
   2236 ****        25.0000  20.0000  65.2500 Du        
   2237 ****        25.0000  20.2500  62.7500 Du        
   2238 ****        25.0000  20.2500  63.0000 Du        
   2239 ****        25.0000  20.2500  63.2500 Du        
   2240 ****        25.0000  20.2500  63.5000 Du        
   2241 ****        25.0000  20.2500  63.7500 Du        
   2242 ****        25.0000  20.2500  64.0000 Du        
   2243 ****        25.0000  20.2500  64.2500 Du        
   2244 ****        25.0000  20.2500  64.5000 Du        
   2245 ****        25.0000  20.2500  64.7500 Du        
   2246 ****        25.0000  20.2500  65.0000 Du        
   2247 ****        25.0000  20.2500  65.2500 Du        
   2248 ****        25.0000  20.2500  65.5000 Du        
   2249 ****        25.0000  20.5000  62.2500 Du        
   2250 ****        25.0000  20.5000  62.5000 Du        
   2251 ****        25.0000  20.5000  62.7500 Du        
   2252 ****        25.0000  20.5000  63.0000 Du        
   2253 ****        25.0000  20.5000  63.2500 Du        
   2254 ****        25.0000  20.5000  63.5000 Du        
   2255 ****        25.0000  20.5000  63.7500 Du        
   2256 ****        25.0000  20.5000  64.0000 Du        
   2257 ****        25.0000  20.5000  64.2500 Du        
   2258 ****        25.0000  20.5000  64.5000 Du        
   2259 ****        25.0000  20.5000  64.7500 Du        
   2260 ****        25.0000  20.5000  65.0000 Du        
   2261 ****        25.0000  20.5000  67.2500 Du        
   2262 ****        25.0000  20.5000  67.5000 Du        
   2263 ****        25.0000  20.5000  67.7500 Du        
   2264 ****        25.0000  20.7500  61.7500 Du        
   2265 ****        25.0000  20.7500  62.0000 Du        
   2266 ****        25.0000  20.7500  62.2500 Du        
   2267 ****        25.0000  20.7500  62.5000 Du        
   2268 ****        25.0000  20.7500  62.7500 Du        
   2269 ****        25.0000  20.7500  63.0000 Du        
   2270 ****        25.0000  20.7500  63.2500 Du        
   2271 ****        25.0000  20.7500  63.5000 Du        
   2272 ****        25.0000  20.7500  63.7500 Du        
   2273 ****        25.0000  20.7500  64.0000 Du        
   2274 ****        25.0000  20.7500  64.2500 Du        
   2275 ****        25.0000  20.7500  64.5000 Du        
   2276 ****        25.0000  20.7500  64.7500 Du        
   2277 ****        25.0000  20.7500  67.5000 Du        
   2278 ****        25.0000  20.7500  67.7500 Du        
   2279 ****        25.0000  21.0000  61.7500 Du        
   2280 ****        25.0000  21.0000  62.0000 Du        
   2281 ****        25.0000  21.0000  62.2500 Du        
   2282 ****        25.0000  21.0000  62.5000 Du        
   2283 ****        25.0000  21.0000  62.7500 Du        
   2284 ****        25.0000  21.0000  63.0000 Du        
   2285 ****        25.0000  21.0000  63.2500 Du        
   2286 ****        25.0000  21.0000  63.5000 Du        
   2287 ****        25.0000  21.0000  63.7500 Du        
   2288 ****        25.0000  21.0000  64.0000 Du        
   2289 ****        25.0000  21.0000  64.2500 Du        
   2290 ****        25.0000  21.2500  61.7500 Du        
   2291 ****        25.0000  21.2500  62.0000 Du        
   2292 ****        25.0000  21.2500  62.2500 Du        
   2293 ****        25.0000  21.2500  62.5000 Du        
   2294 ****        25.0000  21.2500  62.7500 Du        
   2295 ****        25.0000  21.2500  63.0000 Du        
   2296 ****        25.0000  21.2500  63.2500 Du        
   2297 ****        25.0000  21.2500  63.5000 Du        
   2298 ****        25.0000  21.2500  63.7500 Du        
   2299 ****        25.0000  21.2500  64.0000 Du        
   2300 ****        25.0000  21.5000  61.5000 Du        
   2301 ****        25.0000  21.5000  61.7500 Du        
   2302 ****        25.0000  21.5000  62.0000 Du        
   2303 ****        25.0000  21.5000  62.2500 Du        
   2304 ****        25.0000  21.5000  62.5000 Du        
   2305 ****        25.0000  21.5000  62.7500 Du        
   2306 ****        25.0000  21.5000  63.0000 Du        
   2307 ****        25.0000  21.5000  63.2500 Du        
   2308 ****        25.0000  21.5000  63.5000 Du        
   2309 ****        25.0000  21.5000  63.7500 Du        
   2310 ****        25.0000  21.7500  61.5000 Du        
   2311 ****        25.0000  21.7500  61.7500 Du        
   2312 ****        25.0000  21.7500  62.0000 Du        
   2313 ****        25.0000  21.7500  62.2500 Du        
   2314 ****        25.0000  21.7500  62.5000 Du        
   2315 ****        25.0000  21.7500  62.7500 Du        
   2316 ****        25.0000  21.7500  63.0000 Du        
   2317 ****        25.0000  21.7500  63.2500 Du        
   2318 ****        25.0000  21.7500  63.5000 Du        
   2319 ****        25.0000  22.0000  61.2500 Du        
   2320 ****        25.0000  22.0000  61.5000 Du        
   2321 ****        25.0000  22.0000  61.7500 Du        
   2322 ****        25.0000  22.0000  62.0000 Du        
   2323 ****        25.0000  22.0000  62.2500 Du        
   2324 ****        25.0000  22.0000  62.5000 Du        
   2325 ****        25.0000  22.0000  62.7500 Du        
   2326 ****        25.0000  22.0000  63.0000 Du        
   2327 ****        25.0000  22.0000  63.2500 Du        
   2328 ****        25.0000  22.2500  61.2500 Du        
   2329 ****        25.0000  22.2500  61.5000 Du        
   2330 ****        25.0000  22.2500  61.7500 Du        
   2331 ****        25.0000  22.2500  62.0000 Du        
   2332 ****        25.0000  22.2500  62.2500 Du        
   2333 ****        25.0000  22.2500  62.5000 Du        
   2334 ****        25.0000  22.2500  62.7500 Du        
   2335 ****        25.0000  22.2500  63.0000 Du        
   2336 ****        25.0000  22.5000  61.2500 Du        
   2337 ****        25.0000  22.5000  61.5000 Du        
   2338 ****        25.0000  22.5000  61.7500 Du        
   2339 ****        25.0000  22.5000  62.0000 Du        
   2340 ****        25.0000  22.5000  62.2500 Du        
   2341 ****        25.0000  22.5000  62.5000 Du        
   2342 ****        25.0000  22.5000  62.7500 Du        
   2343 ****        25.0000  22.7500  61.0000 Du        
   2344 ****        25.0000  22.7500  61.2500 Du        
   2345 ****        25.0000  22.7500  61.5000 Du        
   2346 ****        25.0000  22.7500  61.7500 Du        
   2347 ****        25.0000  22.7500  62.0000 Du        
   2348 ****        25.0000  22.7500  62.2500 Du        
   2349 ****        25.0000  22.7500  62.5000 Du        
   2350 ****        25.0000  22.7500  62.7500 Du        
   2351 ****        25.0000  23.0000  60.7500 Du        
   2352 ****        25.0000  23.0000  61.0000 Du        
   2353 ****        25.0000  23.0000  61.2500 Du        
   2354 ****        25.0000  23.0000  61.5000 Du        
   2355 ****        25.0000  23.0000  61.7500 Du        
   2356 ****        25.0000  23.0000  62.0000 Du        
   2357 ****        25.0000  23.0000  62.2500 Du        
   2358 ****        25.0000  23.0000  62.5000 Du        
   2359 ****        25.0000  23.2500  60.2500 Du        
   2360 ****        25.0000  23.2500  60.5000 Du        
   2361 ****        25.0000  23.2500  60.7500 Du        
   2362 ****        25.0000  23.2500  61.0000 Du        
   2363 ****        25.0000  23.2500  61.2500 Du        
   2364 ****        25.0000  23.2500  61.5000 Du        
   2365 ****        25.0000  23.2500  61.7500 Du        
   2366 ****        25.0000  23.2500  62.0000 Du        
   2367 ****        25.0000  23.2500  62.2500 Du        
   2368 ****        25.0000  23.5000  59.7500 Du        
   2369 ****        25.0000  23.5000  60.0000 Du        
   2370 ****        25.0000  23.5000  60.2500 Du        
   2371 ****        25.0000  23.5000  60.5000 Du        
   2372 ****        25.0000  23.5000  60.7500 Du        
   2373 ****        25.0000  23.5000  61.0000 Du        
   2374 ****        25.0000  23.5000  61.2500 Du        
   2375 ****        25.0000  23.5000  61.5000 Du        
   2376 ****        25.0000  23.5000  61.7500 Du        
   2377 ****        25.0000  23.5000  62.0000 Du        
   2378 ****        25.0000  23.7500  58.7500 Du        
   2379 ****        25.0000  23.7500  59.0000 Du        
   2380 ****        25.0000  23.7500  59.2500 Du        
   2381 ****        25.0000  23.7500  59.5000 Du        
   2382 ****        25.0000  23.7500  59.7500 Du        
   2383 ****        25.0000  23.7500  60.0000 Du        
   2384 ****        25.0000  23.7500  60.2500 Du        
   2385 ****        25.0000  23.7500  60.5000 Du        
   2386 ****        25.0000  23.7500  60.7500 Du        
   2387 ****        25.0000  23.7500  61.0000 Du        
   2388 ****        25.0000  23.7500  61.2500 Du        
   2389 ****        25.0000  23.7500  61.5000 Du        
   2390 ****        25.0000  23.7500  61.7500 Du        
   2391 ****        25.0000  23.7500  62.0000 Du        
   2392 ****        25.0000  24.0000  59.0000 Du        
   2393 ****        25.0000  24.0000  59.2500 Du        
   2394 ****        25.0000  24.0000  59.5000 Du        
   2395 ****        25.0000  24.0000  59.7500 Du        
   2396 ****        25.0000  24.0000  60.0000 Du        
   2397 ****        25.0000  24.0000  60.2500 Du        
   2398 ****        25.0000  24.0000  60.5000 Du        
   2399 ****        25.0000  24.0000  60.7500 Du        
   2400 ****        25.0000  24.0000  61.0000 Du        
   2401 ****        25.0000  24.0000  61.2500 Du        
   2402 ****        25.0000  24.0000  61.5000 Du        
   2403 ****        25.0000  24.0000  61.7500 Du        
   2404 ****        25.0000  24.0000  62.0000 Du        
   2405 ****        25.0000  24.2500  59.7500 Du        
   2406 ****        25.0000  24.2500  60.0000 Du        
   2407 ****        25.0000  24.2500  60.2500 Du        
   2408 ****        25.0000  24.2500  60.5000 Du        
   2409 ****        25.0000  24.2500  60.7500 Du        
   2410 ****        25.0000  24.2500  61.0000 Du        
   2411 ****        25.0000  24.2500  61.2500 Du        
   2412 ****        25.2500  19.5000  63.7500 Du        
   2413 ****        25.2500  19.5000  64.0000 Du        
   2414 ****        25.2500  19.5000  64.2500 Du        
   2415 ****        25.2500  19.5000  64.5000 Du        
   2416 ****        25.2500  19.7500  63.5000 Du        
   2417 ****        25.2500  19.7500  63.7500 Du        
   2418 ****        25.2500  19.7500  64.0000 Du        
   2419 ****        25.2500  19.7500  64.2500 Du        
   2420 ****        25.2500  19.7500  64.5000 Du        
   2421 ****        25.2500  20.0000  63.2500 Du        
   2422 ****        25.2500  20.0000  63.5000 Du        
   2423 ****        25.2500  20.0000  63.7500 Du        
   2424 ****        25.2500  20.0000  64.0000 Du        
   2425 ****        25.2500  20.0000  64.2500 Du        
   2426 ****        25.2500  20.0000  64.5000 Du        
   2427 ****        25.2500  20.0000  64.7500 Du        
   2428 ****        25.2500  20.2500  63.0000 Du        
   2429 ****        25.2500  20.2500  63.2500 Du        
   2430 ****        25.2500  20.2500  63.5000 Du        
   2431 ****        25.2500  20.2500  63.7500 Du        
   2432 ****        25.2500  20.2500  64.0000 Du        
   2433 ****        25.2500  20.2500  64.2500 Du        
   2434 ****        25.2500  20.2500  64.5000 Du        
   2435 ****        25.2500  20.2500  64.7500 Du        
   2436 ****        25.2500  20.2500  67.7500 Du        
   2437 ****        25.2500  20.5000  62.7500 Du        
   2438 ****        25.2500  20.5000  63.0000 Du        
   2439 ****        25.2500  20.5000  63.2500 Du        
   2440 ****        25.2500  20.5000  63.5000 Du        
   2441 ****        25.2500  20.5000  63.7500 Du        
   2442 ****        25.2500  20.5000  64.0000 Du        
   2443 ****        25.2500  20.5000  64.2500 Du        
   2444 ****        25.2500  20.5000  64.5000 Du        
   2445 ****        25.2500  20.5000  67.2500 Du        
   2446 ****        25.2500  20.5000  67.5000 Du        
   2447 ****        25.2500  20.5000  67.7500 Du        
   2448 ****        25.2500  20.7500  62.2500 Du        
   2449 ****        25.2500  20.7500  62.5000 Du        
   2450 ****        25.2500  20.7500  62.7500 Du        
   2451 ****        25.2500  20.7500  63.0000 Du        
   2452 ****        25.2500  20.7500  63.2500 Du        
   2453 ****        25.2500  20.7500  63.5000 Du        
   2454 ****        25.2500  20.7500  63.7500 Du        
   2455 ****        25.2500  20.7500  64.0000 Du        
   2456 ****        25.2500  20.7500  64.2500 Du        
   2457 ****        25.2500  20.7500  67.2500 Du        
   2458 ****        25.2500  20.7500  67.5000 Du        
   2459 ****        25.2500  20.7500  67.7500 Du        
   2460 ****        25.2500  21.0000  61.7500 Du        
   2461 ****        25.2500  21.0000  62.0000 Du        
   2462 ****        25.2500  21.0000  62.2500 Du        
   2463 ****        25.2500  21.0000  62.5000 Du        
   2464 ****        25.2500  21.0000  62.7500 Du        
   2465 ****        25.2500  21.0000  63.0000 Du        
   2466 ****        25.2500  21.0000  63.2500 Du        
   2467 ****        25.2500  21.0000  63.5000 Du        
   2468 ****        25.2500  21.0000  63.7500 Du        
   2469 ****        25.2500  21.0000  64.0000 Du        
   2470 ****        25.2500  21.0000  67.5000 Du        
   2471 ****        25.2500  21.0000  67.7500 Du        
   2472 ****        25.2500  21.2500  61.7500 Du        
   2473 ****        25.2500  21.2500  62.0000 Du        
   2474 ****        25.2500  21.2500  62.2500 Du        
   2475 ****        25.2500  21.2500  62.5000 Du        
   2476 ****        25.2500  21.2500  62.7500 Du        
   2477 ****        25.2500  21.2500  63.0000 Du        
   2478 ****        25.2500  21.2500  63.2500 Du        
   2479 ****        25.2500  21.2500  67.7500 Du        
   2480 ****        25.2500  21.5000  61.7500 Du        
   2481 ****        25.2500  21.5000  62.0000 Du        
   2482 ****        25.2500  21.5000  62.2500 Du        
   2483 ****        25.2500  21.5000  62.5000 Du        
   2484 ****        25.2500  21.5000  62.7500 Du        
   2485 ****        25.2500  21.7500  61.7500 Du        
   2486 ****        25.2500  21.7500  62.0000 Du        
   2487 ****        25.2500  21.7500  62.2500 Du        
   2488 ****        25.2500  21.7500  62.5000 Du        
   2489 ****        25.2500  21.7500  62.7500 Du        
   2490 ****        25.2500  22.0000  61.5000 Du        
   2491 ****        25.2500  22.0000  61.7500 Du        
   2492 ****        25.2500  22.0000  62.0000 Du        
   2493 ****        25.2500  22.0000  62.2500 Du        
   2494 ****        25.2500  22.0000  62.5000 Du        
   2495 ****        25.2500  22.0000  62.7500 Du        
   2496 ****        25.2500  22.2500  61.5000 Du        
   2497 ****        25.2500  22.2500  61.7500 Du        
   2498 ****        25.2500  22.2500  62.0000 Du        
   2499 ****        25.2500  22.2500  62.2500 Du        
   2500 ****        25.2500  22.2500  62.5000 Du        
   2501 ****        25.2500  22.2500  62.7500 Du        
   2502 ****        25.2500  22.5000  61.5000 Du        
   2503 ****        25.2500  22.5000  61.7500 Du        
   2504 ****        25.2500  22.5000  62.0000 Du        
   2505 ****        25.2500  22.5000  62.2500 Du        
   2506 ****        25.2500  22.5000  62.5000 Du        
   2507 ****        25.2500  22.5000  62.7500 Du        
   2508 ****        25.2500  22.7500  61.0000 Du        
   2509 ****        25.2500  22.7500  61.2500 Du        
   2510 ****        25.2500  22.7500  61.5000 Du        
   2511 ****        25.2500  22.7500  61.7500 Du        
   2512 ****        25.2500  22.7500  62.0000 Du        
   2513 ****        25.2500  22.7500  62.2500 Du        
   2514 ****        25.2500  22.7500  62.5000 Du        
   2515 ****        25.2500  22.7500  62.7500 Du        
   2516 ****        25.2500  23.0000  60.7500 Du        
   2517 ****        25.2500  23.0000  61.0000 Du        
   2518 ****        25.2500  23.0000  61.2500 Du        
   2519 ****        25.2500  23.0000  61.5000 Du        
   2520 ****        25.2500  23.0000  61.7500 Du        
   2521 ****        25.2500  23.0000  62.0000 Du        
   2522 ****        25.2500  23.0000  62.2500 Du        
   2523 ****        25.2500  23.0000  62.5000 Du        
   2524 ****        25.2500  23.2500  60.5000 Du        
   2525 ****        25.2500  23.2500  60.7500 Du        
   2526 ****        25.2500  23.2500  61.0000 Du        
   2527 ****        25.2500  23.2500  61.2500 Du        
   2528 ****        25.2500  23.2500  61.5000 Du        
   2529 ****        25.2500  23.2500  61.7500 Du        
   2530 ****        25.2500  23.2500  62.0000 Du        
   2531 ****        25.2500  23.2500  62.2500 Du        
   2532 ****        25.2500  23.5000  60.0000 Du        
   2533 ****        25.2500  23.5000  60.2500 Du        
   2534 ****        25.2500  23.5000  60.5000 Du        
   2535 ****        25.2500  23.5000  60.7500 Du        
   2536 ****        25.2500  23.5000  61.0000 Du        
   2537 ****        25.2500  23.5000  61.2500 Du        
   2538 ****        25.2500  23.5000  61.5000 Du        
   2539 ****        25.2500  23.5000  61.7500 Du        
   2540 ****        25.2500  23.5000  62.0000 Du        
   2541 ****        25.2500  23.7500  59.0000 Du        
   2542 ****        25.2500  23.7500  59.2500 Du        
   2543 ****        25.2500  23.7500  59.5000 Du        
   2544 ****        25.2500  23.7500  59.7500 Du        
   2545 ****        25.2500  23.7500  60.0000 Du        
   2546 ****        25.2500  23.7500  60.2500 Du        
   2547 ****        25.2500  23.7500  60.5000 Du        
   2548 ****        25.2500  23.7500  60.7500 Du        
   2549 ****        25.2500  23.7500  61.0000 Du        
   2550 ****        25.2500  23.7500  61.2500 Du        
   2551 ****        25.2500  23.7500  61.5000 Du        
   2552 ****        25.2500  23.7500  61.7500 Du        
   2553 ****        25.2500  23.7500  62.0000 Du        
   2554 ****        25.2500  24.0000  59.0000 Du        
   2555 ****        25.2500  24.0000  59.2500 Du        
   2556 ****        25.2500  24.0000  59.5000 Du        
   2557 ****        25.2500  24.0000  59.7500 Du        
   2558 ****        25.2500  24.0000  60.0000 Du        
   2559 ****        25.2500  24.0000  60.2500 Du        
   2560 ****        25.2500  24.0000  60.5000 Du        
   2561 ****        25.2500  24.0000  60.7500 Du        
   2562 ****        25.2500  24.0000  61.0000 Du        
   2563 ****        25.2500  24.0000  61.2500 Du        
   2564 ****        25.2500  24.0000  61.5000 Du        
   2565 ****        25.2500  24.0000  61.7500 Du        
   2566 ****        25.2500  24.0000  62.0000 Du        
   2567 ****        25.2500  24.2500  59.2500 Du        
   2568 ****        25.2500  24.2500  59.5000 Du        
   2569 ****        25.2500  24.2500  59.7500 Du        
   2570 ****        25.2500  24.2500  60.0000 Du        
   2571 ****        25.2500  24.2500  60.2500 Du        
   2572 ****        25.2500  24.2500  60.5000 Du        
   2573 ****        25.2500  24.2500  60.7500 Du        
   2574 ****        25.2500  24.2500  61.0000 Du        
   2575 ****        25.2500  24.2500  61.2500 Du        
   2576 ****        25.2500  24.5000  60.2500 Du        
   2577 ****        25.5000  19.7500  63.7500 Du        
   2578 ****        25.5000  19.7500  64.0000 Du        
   2579 ****        25.5000  19.7500  64.2500 Du        
   2580 ****        25.5000  20.0000  63.5000 Du        
   2581 ****        25.5000  20.0000  63.7500 Du        
   2582 ****        25.5000  20.0000  64.0000 Du        
   2583 ****        25.5000  20.0000  64.2500 Du        
   2584 ****        25.5000  20.2500  63.5000 Du        
   2585 ****        25.5000  20.2500  63.7500 Du        
   2586 ****        25.5000  20.2500  64.0000 Du        
   2587 ****        25.5000  20.2500  67.7500 Du        
   2588 ****        25.5000  20.5000  67.5000 Du        
   2589 ****        25.5000  20.5000  67.7500 Du        
   2590 ****        25.5000  20.7500  67.5000 Du        
   2591 ****        25.5000  20.7500  67.7500 Du        
   2592 ****        25.5000  21.0000  67.5000 Du        
   2593 ****        25.5000  21.0000  67.7500 Du        
   2594 ****        25.5000  21.2500  62.0000 Du        
   2595 ****        25.5000  21.2500  67.5000 Du        
   2596 ****        25.5000  21.2500  67.7500 Du        
   2597 ****        25.5000  22.0000  61.7500 Du        
   2598 ****        25.5000  22.0000  62.0000 Du        
   2599 ****        25.5000  22.0000  62.2500 Du        
   2600 ****        25.5000  22.2500  61.7500 Du        
   2601 ****        25.5000  22.2500  62.0000 Du        
   2602 ****        25.5000  22.5000  61.7500 Du        
   2603 ****        25.5000  22.5000  62.0000 Du        
   2604 ****        25.5000  22.5000  62.2500 Du        
   2605 ****        25.5000  22.7500  61.2500 Du        
   2606 ****        25.5000  22.7500  61.5000 Du        
   2607 ****        25.5000  22.7500  61.7500 Du        
   2608 ****        25.5000  22.7500  62.0000 Du        
   2609 ****        25.5000  22.7500  62.2500 Du        
   2610 ****        25.5000  23.0000  61.2500 Du        
   2611 ****        25.5000  23.0000  61.5000 Du        
   2612 ****        25.5000  23.0000  61.7500 Du        
   2613 ****        25.5000  23.0000  62.0000 Du        
   2614 ****        25.5000  23.0000  62.2500 Du        
   2615 ****        25.5000  23.2500  61.0000 Du        
   2616 ****        25.5000  23.2500  61.2500 Du        
   2617 ****        25.5000  23.2500  61.5000 Du        
   2618 ****        25.5000  23.2500  61.7500 Du        
   2619 ****        25.5000  23.2500  62.0000 Du        
   2620 ****        25.5000  23.2500  62.2500 Du        
   2621 ****        25.5000  23.5000  61.2500 Du        
   2622 ****        25.5000  23.5000  62.0000 Du        
   2623 ****        25.5000  23.7500  59.7500 Du        
   2624 ****        25.5000  23.7500  60.0000 Du        
   2625 ****        25.5000  23.7500  60.2500 Du        
   2626 ****        25.5000  23.7500  60.7500 Du        
   2627 ****        25.5000  23.7500  61.0000 Du        
   2628 ****        25.5000  23.7500  61.2500 Du        
   2629 ****        25.5000  24.0000  59.0000 Du        
   2630 ****        25.5000  24.0000  59.2500 Du        
   2631 ****        25.5000  24.0000  59.5000 Du        
   2632 ****        25.5000  24.0000  59.7500 Du        
   2633 ****        25.5000  24.0000  60.0000 Du        
   2634 ****        25.5000  24.0000  60.2500 Du        
   2635 ****        25.5000  24.0000  60.7500 Du        
   2636 ****        25.5000  24.0000  61.0000 Du        
   2637 ****        25.5000  24.0000  61.2500 Du        
   2638 ****        25.5000  24.2500  59.0000 Du        
   2639 ****        25.5000  24.2500  59.2500 Du        
   2640 ****        25.5000  24.2500  59.5000 Du        
   2641 ****        25.5000  24.2500  59.7500 Du        
   2642 ****        25.5000  24.2500  60.0000 Du        
   2643 ****        25.5000  24.2500  60.2500 Du        
   2644 ****        25.7500  20.5000  67.7500 Du        
   2645 ****        25.7500  20.7500  67.7500 Du        
   2646 ****        25.7500  21.0000  67.7500 Du        
   2647 ****        25.7500  21.2500  67.7500 Du        
   2648 ****        25.7500  22.7500  61.7500 Du        
   2649 ****        25.7500  22.7500  62.0000 Du        
   2650 ****        25.7500  23.0000  61.2500 Du        
   2651 ****        25.7500  23.0000  61.7500 Du        
   2652 ****        25.7500  23.0000  62.0000 Du        
   2653 ****        25.7500  23.2500  61.2500 Du        
   2654 ****        25.7500  23.2500  61.5000 Du        
   2655 ****        25.7500  23.2500  61.7500 Du        
   2656 ****        25.7500  23.2500  62.0000 Du        
   2657 ****        25.7500  23.5000  61.2500 Du        
   2658 ****        25.7500  23.5000  61.7500 Du        
   2659 ****        25.7500  23.5000  62.0000 Du        
   2660 ****        25.7500  23.7500  60.2500 Du        
   2661 ****        25.7500  23.7500  61.2500 Du        
   2662 ****        25.7500  23.7500  62.0000 Du        
   2663 ****        25.7500  24.0000  59.2500 Du        
   2664 ****        25.7500  24.0000  59.5000 Du        
   2665 ****        25.7500  24.0000  59.7500 Du        
   2666 ****        25.7500  24.0000  60.0000 Du        
   2667 ****        25.7500  24.0000  60.2500 Du        
   2668 ****        25.7500  24.0000  60.7500 Du        
   2669 ****        25.7500  24.0000  61.2500 Du        
   2670 ****        25.7500  24.2500  59.2500 Du        
   2671 ****        25.7500  24.2500  59.5000 Du        
   2672 ****        25.7500  24.2500  59.7500 Du        
   2673 ****        25.7500  24.2500  60.0000 Du        
   2674 ****        25.7500  24.2500  60.2500 Du        
   2675 ****        25.7500  24.2500  60.5000 Du        
   2676 ****        25.7500  24.2500  61.2500 Du        
   2677 ****        25.7500  24.5000  59.2500 Du        
   2678 ****        25.7500  24.5000  59.5000 Du        
   2679 ****        25.7500  24.5000  59.7500 Du        
   2680 ****        25.7500  24.5000  60.0000 Du        
   2681 ****        25.7500  24.5000  60.2500 Du        
   2682 ****        25.7500  24.7500  59.7500 Du        
   2683 ****        25.7500  24.7500  60.0000 Du        
   2684 ****        26.0000  23.2500  61.2500 Du        
   2685 ****        26.0000  23.2500  61.7500 Du        
   2686 ****        26.0000  23.7500  61.2500 Du        
   2687 ****        26.0000  24.0000  59.7500 Du        
   2688 ****        26.0000  24.0000  60.0000 Du        
   2689 ****        26.0000  24.0000  60.2500 Du        
   2690 ****        26.0000  24.0000  61.0000 Du        
   2691 ****        26.0000  24.0000  61.2500 Du        
   2692 ****        26.0000  24.2500  59.2500 Du        
   2693 ****        26.0000  24.2500  59.5000 Du        
   2694 ****        26.0000  24.2500  59.7500 Du        
   2695 ****        26.0000  24.2500  60.0000 Du        
   2696 ****        26.0000  24.2500  60.2500 Du        
   2697 ****        26.0000  24.5000  59.5000 Du        
   2698 ****        26.0000  24.5000  59.7500 Du        
   2699 ****        26.0000  24.5000  60.0000 Du        
   2700 ****        26.0000  24.5000  60.2500 Du        
   2701 ****        26.0000  24.7500  59.2500 Du        
   2702 ****        26.0000  24.7500  59.5000 Du        
   2703 ****        26.0000  24.7500  59.7500 Du        
   2704 ****        26.0000  24.7500  60.0000 Du        
   2705 ****        26.0000  24.7500  60.2500 Du        
   2706 ****        26.0000  25.0000  59.7500 Du        
   2707 ****        26.0000  25.0000  60.0000 Du        
   2708 ****        26.2500  24.0000  60.0000 Du        
   2709 ****        26.2500  24.2500  59.5000 Du        
   2710 ****        26.2500  24.2500  59.7500 Du        
   2711 ****        26.2500  24.2500  60.0000 Du        
   2712 ****        26.2500  24.2500  60.2500 Du        
   2713 ****        26.2500  24.5000  59.5000 Du        
   2714 ****        26.2500  24.5000  59.7500 Du        
   2715 ****        26.2500  24.5000  60.0000 Du        
   2716 ****        26.2500  24.5000  60.2500 Du        
   2717 ****        26.2500  24.7500  59.5000 Du        
   2718 ****        26.2500  24.7500  59.7500 Du        
   2719 ****        26.2500  24.7500  60.0000 Du        
   2720 ****        26.2500  24.7500  60.2500 Du        
   2721 ****        26.2500  25.0000  59.5000 Du        
   2722 ****        26.2500  25.0000  59.7500 Du        
   2723 ****        26.2500  25.0000  60.0000 Du        
   2724 ****        26.2500  25.0000  60.2500 Du        
   2725 ****        26.2500  25.2500  59.7500 Du        
   2726 ****        26.2500  25.2500  60.0000 Du        
   2727 ****        26.5000  24.2500  60.0000 Du        
   2728 ****        26.5000  24.2500  60.2500 Du        
   2729 ****        26.5000  24.5000  59.5000 Du        
   2730 ****        26.5000  24.5000  59.7500 Du        
   2731 ****        26.5000  24.5000  60.0000 Du        
   2732 ****        26.5000  24.5000  60.2500 Du        
   2733 ****        26.5000  24.7500  59.5000 Du        
   2734 ****        26.5000  24.7500  59.7500 Du        
   2735 ****        26.5000  24.7500  60.0000 Du        
   2736 ****        26.5000  24.7500  60.2500 Du        
   2737 ****        26.5000  25.0000  59.5000 Du        
   2738 ****        26.5000  25.0000  59.7500 Du        
   2739 ****        26.5000  25.0000  60.0000 Du        
   2740 ****        26.5000  25.0000  60.2500 Du        
   2741 ****        26.5000  25.2500  59.5000 Du        
   2742 ****        26.5000  25.2500  59.7500 Du        
   2743 ****        26.5000  25.2500  60.0000 Du        
   2744 ****        26.5000  25.5000  59.7500 Du        
   2745 ****        26.5000  25.5000  60.0000 Du        
   2746 ****        26.7500  24.2500  60.0000 Du        
   2747 ****        26.7500  24.2500  60.2500 Du        
   2748 ****        26.7500  24.5000  59.7500 Du        
   2749 ****        26.7500  24.5000  60.0000 Du        
   2750 ****        26.7500  24.5000  60.2500 Du        
   2751 ****        26.7500  24.7500  59.5000 Du        
   2752 ****        26.7500  24.7500  59.7500 Du        
   2753 ****        26.7500  24.7500  60.0000 Du        
   2754 ****        26.7500  24.7500  60.2500 Du        
   2755 ****        26.7500  25.0000  59.5000 Du        
   2756 ****        26.7500  25.0000  59.7500 Du        
   2757 ****        26.7500  25.0000  60.0000 Du        
   2758 ****        26.7500  25.0000  60.2500 Du        
   2759 ****        26.7500  25.2500  59.5000 Du        
   2760 ****        26.7500  25.2500  59.7500 Du        
   2761 ****        26.7500  25.2500  60.0000 Du        
   2762 ****        26.7500  25.2500  60.2500 Du        
   2763 ****        26.7500  25.5000  59.7500 Du        
   2764 ****        27.0000  24.5000  59.7500 Du        
   2765 ****        27.0000  24.5000  60.0000 Du        
   2766 ****        27.0000  24.5000  60.2500 Du        
   2767 ****        27.0000  24.7500  59.5000 Du        
   2768 ****        27.0000  24.7500  59.7500 Du        
   2769 ****        27.0000  24.7500  60.0000 Du        
   2770 ****        27.0000  24.7500  60.2500 Du        
   2771 ****        27.0000  25.0000  59.7500 Du        
   2772 ****        27.0000  25.0000  60.0000 Du        
   2773 ****        27.0000  25.0000  60.2500 Du        
   2774 ****        27.0000  25.2500  59.7500 Du        
   2775 ****        27.0000  25.2500  60.0000 Du        
   2776 ****        27.0000  25.2500  60.2500 Du        
   2777 ****        27.2500  24.5000  59.7500 Du        
   2778 ****        27.2500  24.5000  60.0000 Du        
   2779 ****        27.2500  24.5000  60.2500 Du        
   2780 ****        27.2500  24.7500  59.7500 Du        
   2781 ****        27.2500  24.7500  60.0000 Du        
   2782 ****        27.2500  24.7500  60.2500 Du        
   2783 ****        27.2500  25.0000  60.0000 Du        
   2784 ****        27.2500  25.0000  60.2500 Du        
   2785 ****        29.0000  16.0000  58.5000 Du        
   2786 ****        29.0000  16.0000  58.7500 Du        
   2787 ****        29.0000  16.2500  58.5000 Du        
   2788 ****        29.0000  16.2500  58.7500 Du        
   2789 ****        29.0000  16.5000  58.5000 Du        
   2790 ****        29.0000  16.5000  58.7500 Du        
   2791 ****        29.0000  16.5000  59.0000 Du        
   2792 ****        29.0000  16.7500  58.5000 Du        
   2793 ****        29.0000  16.7500  58.7500 Du        
   2794 ****        29.0000  16.7500  59.0000 Du        
   2795 ****        29.0000  17.0000  58.5000 Du        
   2796 ****        29.0000  17.0000  58.7500 Du        
   2797 ****        29.0000  17.0000  59.0000 Du        
   2798 ****        29.0000  17.2500  58.7500 Du        
   2799 ****        29.0000  17.2500  59.0000 Du        
   2800 ****        29.0000  17.5000  58.7500 Du        
   2801 ****        29.0000  17.5000  59.0000 Du        
   2802 ****        29.0000  17.7500  58.7500 Du        
   2803 ****        29.0000  17.7500  59.0000 Du        
   2804 ****        29.0000  18.0000  59.0000 Du        
   2805 ****        29.0000  18.0000  59.2500 Du        
   2806 ****        29.0000  18.2500  59.2500 Du        
   2807 ****        29.0000  18.5000  59.5000 Du        
   2808 ****        29.0000  18.7500  59.7500 Du        
   2809 ****        29.0000  19.0000  59.7500 Du        
   2810 ****        29.0000  19.0000  60.0000 Du        
   2811 ****        29.0000  19.2500  60.0000 Du        
   2812 ****        29.0000  19.2500  60.2500 Du        
   2813 ****        29.2500  16.0000  58.5000 Du        
   2814 ****        29.2500  16.0000  58.7500 Du        
   2815 ****        29.2500  16.0000  59.0000 Du        
   2816 ****        29.2500  16.2500  58.5000 Du        
   2817 ****        29.2500  16.2500  58.7500 Du        
   2818 ****        29.2500  16.2500  59.0000 Du        
   2819 ****        29.2500  16.5000  58.5000 Du        
   2820 ****        29.2500  16.5000  58.7500 Du        
   2821 ****        29.2500  16.5000  59.0000 Du        
   2822 ****        29.2500  16.5000  59.2500 Du        
   2823 ****        29.2500  16.7500  58.5000 Du        
   2824 ****        29.2500  16.7500  58.7500 Du        
   2825 ****        29.2500  16.7500  59.0000 Du        
   2826 ****        29.2500  16.7500  59.2500 Du        
   2827 ****        29.2500  17.0000  58.5000 Du        
   2828 ****        29.2500  17.0000  58.7500 Du        
   2829 ****        29.2500  17.0000  59.0000 Du        
   2830 ****        29.2500  17.0000  59.2500 Du        
   2831 ****        29.2500  17.2500  58.5000 Du        
   2832 ****        29.2500  17.2500  58.7500 Du        
   2833 ****        29.2500  17.2500  59.0000 Du        
   2834 ****        29.2500  17.2500  59.2500 Du        
   2835 ****        29.2500  17.2500  59.5000 Du        
   2836 ****        29.2500  17.5000  58.5000 Du        
   2837 ****        29.2500  17.5000  58.7500 Du        
   2838 ****        29.2500  17.5000  59.0000 Du        
   2839 ****        29.2500  17.5000  59.2500 Du        
   2840 ****        29.2500  17.5000  59.5000 Du        
   2841 ****        29.2500  17.7500  58.5000 Du        
   2842 ****        29.2500  17.7500  58.7500 Du        
   2843 ****        29.2500  17.7500  59.0000 Du        
   2844 ****        29.2500  17.7500  59.2500 Du        
   2845 ****        29.2500  17.7500  59.5000 Du        
   2846 ****        29.2500  18.0000  58.7500 Du        
   2847 ****        29.2500  18.0000  59.0000 Du        
   2848 ****        29.2500  18.0000  59.2500 Du        
   2849 ****        29.2500  18.0000  59.5000 Du        
   2850 ****        29.2500  18.2500  59.0000 Du        
   2851 ****        29.2500  18.2500  59.2500 Du        
   2852 ****        29.2500  18.2500  59.5000 Du        
   2853 ****        29.2500  18.2500  59.7500 Du        
   2854 ****        29.2500  18.5000  59.0000 Du        
   2855 ****        29.2500  18.5000  59.2500 Du        
   2856 ****        29.2500  18.5000  59.5000 Du        
   2857 ****        29.2500  18.5000  59.7500 Du        
   2858 ****        29.2500  18.5000  60.0000 Du        
   2859 ****        29.2500  18.7500  59.2500 Du        
   2860 ****        29.2500  18.7500  59.5000 Du        
   2861 ****        29.2500  18.7500  59.7500 Du        
   2862 ****        29.2500  18.7500  60.0000 Du        
   2863 ****        29.2500  18.7500  60.2500 Du        
   2864 ****        29.2500  19.0000  59.5000 Du        
   2865 ****        29.2500  19.0000  59.7500 Du        
   2866 ****        29.2500  19.0000  60.0000 Du        
   2867 ****        29.2500  19.0000  60.2500 Du        
   2868 ****        29.2500  19.2500  59.7500 Du        
   2869 ****        29.2500  19.2500  60.0000 Du        
   2870 ****        29.2500  19.2500  60.2500 Du        
   2871 ****        29.2500  19.5000  60.0000 Du        
   2872 ****        29.2500  19.5000  60.2500 Du        
   2873 ****        29.2500  19.5000  60.5000 Du        
   2874 ****        29.2500  19.7500  60.2500 Du        
   2875 ****        29.5000  15.7500  58.5000 Du        
   2876 ****        29.5000  15.7500  58.7500 Du        
   2877 ****        29.5000  16.0000  58.5000 Du        
   2878 ****        29.5000  16.0000  58.7500 Du        
   2879 ****        29.5000  16.0000  59.0000 Du        
   2880 ****        29.5000  16.2500  58.5000 Du        
   2881 ****        29.5000  16.2500  58.7500 Du        
   2882 ****        29.5000  16.2500  59.0000 Du        
   2883 ****        29.5000  16.2500  59.2500 Du        
   2884 ****        29.5000  16.5000  58.5000 Du        
   2885 ****        29.5000  16.5000  58.7500 Du        
   2886 ****        29.5000  16.5000  59.0000 Du        
   2887 ****        29.5000  16.5000  59.2500 Du        
   2888 ****        29.5000  16.7500  58.5000 Du        
   2889 ****        29.5000  16.7500  58.7500 Du        
   2890 ****        29.5000  16.7500  59.0000 Du        
   2891 ****        29.5000  16.7500  59.2500 Du        
   2892 ****        29.5000  16.7500  59.5000 Du        
   2893 ****        29.5000  17.0000  58.5000 Du        
   2894 ****        29.5000  17.0000  58.7500 Du        
   2895 ****        29.5000  17.0000  59.0000 Du        
   2896 ****        29.5000  17.0000  59.2500 Du        
   2897 ****        29.5000  17.0000  59.5000 Du        
   2898 ****        29.5000  17.2500  58.5000 Du        
   2899 ****        29.5000  17.2500  58.7500 Du        
   2900 ****        29.5000  17.2500  59.0000 Du        
   2901 ****        29.5000  17.2500  59.2500 Du        
   2902 ****        29.5000  17.2500  59.5000 Du        
   2903 ****        29.5000  17.2500  59.7500 Du        
   2904 ****        29.5000  17.5000  58.5000 Du        
   2905 ****        29.5000  17.5000  58.7500 Du        
   2906 ****        29.5000  17.5000  59.0000 Du        
   2907 ****        29.5000  17.5000  59.2500 Du        
   2908 ****        29.5000  17.5000  59.5000 Du        
   2909 ****        29.5000  17.5000  59.7500 Du        
   2910 ****        29.5000  17.7500  58.5000 Du        
   2911 ****        29.5000  17.7500  58.7500 Du        
   2912 ****        29.5000  17.7500  59.0000 Du        
   2913 ****        29.5000  17.7500  59.2500 Du        
   2914 ****        29.5000  17.7500  59.5000 Du        
   2915 ****        29.5000  17.7500  59.7500 Du        
   2916 ****        29.5000  18.0000  58.5000 Du        
   2917 ****        29.5000  18.0000  58.7500 Du        
   2918 ****        29.5000  18.0000  59.0000 Du        
   2919 ****        29.5000  18.0000  59.2500 Du        
   2920 ****        29.5000  18.0000  59.5000 Du        
   2921 ****        29.5000  18.0000  59.7500 Du        
   2922 ****        29.5000  18.0000  60.0000 Du        
   2923 ****        29.5000  18.2500  58.7500 Du        
   2924 ****        29.5000  18.2500  59.0000 Du        
   2925 ****        29.5000  18.2500  59.2500 Du        
   2926 ****        29.5000  18.2500  59.5000 Du        
   2927 ****        29.5000  18.2500  59.7500 Du        
   2928 ****        29.5000  18.2500  60.0000 Du        
   2929 ****        29.5000  18.5000  58.7500 Du        
   2930 ****        29.5000  18.5000  59.0000 Du        
   2931 ****        29.5000  18.5000  59.2500 Du        
   2932 ****        29.5000  18.5000  59.5000 Du        
   2933 ****        29.5000  18.5000  59.7500 Du        
   2934 ****        29.5000  18.5000  60.0000 Du        
   2935 ****        29.5000  18.7500  59.0000 Du        
   2936 ****        29.5000  18.7500  59.2500 Du        
   2937 ****        29.5000  18.7500  59.5000 Du        
   2938 ****        29.5000  18.7500  59.7500 Du        
   2939 ****        29.5000  18.7500  60.0000 Du        
   2940 ****        29.5000  18.7500  60.2500 Du        
   2941 ****        29.5000  19.0000  59.2500 Du        
   2942 ****        29.5000  19.0000  59.5000 Du        
   2943 ****        29.5000  19.0000  59.7500 Du        
   2944 ****        29.5000  19.0000  60.0000 Du        
   2945 ****        29.5000  19.0000  60.2500 Du        
   2946 ****        29.5000  19.0000  60.5000 Du        
   2947 ****        29.5000  19.2500  59.2500 Du        
   2948 ****        29.5000  19.2500  59.5000 Du        
   2949 ****        29.5000  19.2500  59.7500 Du        
   2950 ****        29.5000  19.2500  60.0000 Du        
   2951 ****        29.5000  19.2500  60.2500 Du        
   2952 ****        29.5000  19.2500  60.5000 Du        
   2953 ****        29.5000  19.5000  59.5000 Du        
   2954 ****        29.5000  19.5000  59.7500 Du        
   2955 ****        29.5000  19.5000  60.0000 Du        
   2956 ****        29.5000  19.5000  60.2500 Du        
   2957 ****        29.5000  19.5000  60.5000 Du        
   2958 ****        29.5000  19.7500  59.7500 Du        
   2959 ****        29.5000  19.7500  60.0000 Du        
   2960 ****        29.5000  19.7500  60.2500 Du        
   2961 ****        29.5000  19.7500  60.5000 Du        
   2962 ****        29.5000  20.0000  60.0000 Du        
   2963 ****        29.5000  20.0000  60.2500 Du        
   2964 ****        29.5000  23.5000  59.0000 Du        
   2965 ****        29.5000  23.5000  59.2500 Du        
   2966 ****        29.5000  23.5000  59.7500 Du        
   2967 ****        29.5000  23.5000  60.0000 Du        
   2968 ****        29.5000  23.7500  59.7500 Du        
   2969 ****        29.5000  23.7500  60.0000 Du        
   2970 ****        29.5000  24.0000  60.0000 Du        
   2971 ****        29.7500  15.5000  58.5000 Du        
   2972 ****        29.7500  15.7500  58.5000 Du        
   2973 ****        29.7500  15.7500  58.7500 Du        
   2974 ****        29.7500  15.7500  59.0000 Du        
   2975 ****        29.7500  16.0000  58.5000 Du        
   2976 ****        29.7500  16.0000  58.7500 Du        
   2977 ****        29.7500  16.0000  59.0000 Du        
   2978 ****        29.7500  16.0000  59.2500 Du        
   2979 ****        29.7500  16.2500  58.5000 Du        
   2980 ****        29.7500  16.2500  58.7500 Du        
   2981 ****        29.7500  16.2500  59.0000 Du        
   2982 ****        29.7500  16.2500  59.2500 Du        
   2983 ****        29.7500  16.2500  59.5000 Du        
   2984 ****        29.7500  16.5000  58.5000 Du        
   2985 ****        29.7500  16.5000  58.7500 Du        
   2986 ****        29.7500  16.5000  59.0000 Du        
   2987 ****        29.7500  16.5000  59.2500 Du        
   2988 ****        29.7500  16.5000  59.5000 Du        
   2989 ****        29.7500  16.7500  58.5000 Du        
   2990 ****        29.7500  16.7500  58.7500 Du        
   2991 ****        29.7500  16.7500  59.0000 Du        
   2992 ****        29.7500  16.7500  59.2500 Du        
   2993 ****        29.7500  16.7500  59.5000 Du        
   2994 ****        29.7500  16.7500  59.7500 Du        
   2995 ****        29.7500  17.0000  58.5000 Du        
   2996 ****        29.7500  17.0000  58.7500 Du        
   2997 ****        29.7500  17.0000  59.0000 Du        
   2998 ****        29.7500  17.0000  59.2500 Du        
   2999 ****        29.7500  17.0000  59.5000 Du        
   3000 ****        29.7500  17.0000  59.7500 Du        
   3001 ****        29.7500  17.2500  58.5000 Du        
   3002 ****        29.7500  17.2500  58.7500 Du        
   3003 ****        29.7500  17.2500  59.0000 Du        
   3004 ****        29.7500  17.2500  59.2500 Du        
   3005 ****        29.7500  17.2500  59.5000 Du        
   3006 ****        29.7500  17.2500  59.7500 Du        
   3007 ****        29.7500  17.2500  60.0000 Du        
   3008 ****        29.7500  17.5000  58.5000 Du        
   3009 ****        29.7500  17.5000  58.7500 Du        
   3010 ****        29.7500  17.5000  59.0000 Du        
   3011 ****        29.7500  17.5000  59.2500 Du        
   3012 ****        29.7500  17.5000  59.5000 Du        
   3013 ****        29.7500  17.5000  59.7500 Du        
   3014 ****        29.7500  17.5000  60.0000 Du        
   3015 ****        29.7500  17.7500  58.2500 Du        
   3016 ****        29.7500  17.7500  58.5000 Du        
   3017 ****        29.7500  17.7500  58.7500 Du        
   3018 ****        29.7500  17.7500  59.0000 Du        
   3019 ****        29.7500  17.7500  59.2500 Du        
   3020 ****        29.7500  17.7500  59.5000 Du        
   3021 ****        29.7500  17.7500  59.7500 Du        
   3022 ****        29.7500  17.7500  60.0000 Du        
   3023 ****        29.7500  18.0000  58.5000 Du        
   3024 ****        29.7500  18.0000  58.7500 Du        
   3025 ****        29.7500  18.0000  59.0000 Du        
   3026 ****        29.7500  18.0000  59.2500 Du        
   3027 ****        29.7500  18.0000  59.5000 Du        
   3028 ****        29.7500  18.0000  59.7500 Du        
   3029 ****        29.7500  18.0000  60.0000 Du        
   3030 ****        29.7500  18.0000  60.2500 Du        
   3031 ****        29.7500  18.2500  58.5000 Du        
   3032 ****        29.7500  18.2500  58.7500 Du        
   3033 ****        29.7500  18.2500  59.0000 Du        
   3034 ****        29.7500  18.2500  59.2500 Du        
   3035 ****        29.7500  18.2500  59.5000 Du        
   3036 ****        29.7500  18.2500  59.7500 Du        
   3037 ****        29.7500  18.2500  60.0000 Du        
   3038 ****        29.7500  18.2500  60.2500 Du        
   3039 ****        29.7500  18.5000  58.7500 Du        
   3040 ****        29.7500  18.5000  59.0000 Du        
   3041 ****        29.7500  18.5000  59.2500 Du        
   3042 ****        29.7500  18.5000  59.5000 Du        
   3043 ****        29.7500  18.5000  59.7500 Du        
   3044 ****        29.7500  18.5000  60.0000 Du        
   3045 ****        29.7500  18.5000  60.2500 Du        
   3046 ****        29.7500  18.7500  58.7500 Du        
   3047 ****        29.7500  18.7500  59.0000 Du        
   3048 ****        29.7500  18.7500  59.2500 Du        
   3049 ****        29.7500  18.7500  59.5000 Du        
   3050 ****        29.7500  18.7500  59.7500 Du        
   3051 ****        29.7500  18.7500  60.0000 Du        
   3052 ****        29.7500  18.7500  60.2500 Du        
   3053 ****        29.7500  18.7500  60.5000 Du        
   3054 ****        29.7500  19.0000  59.0000 Du        
   3055 ****        29.7500  19.0000  59.2500 Du        
   3056 ****        29.7500  19.0000  59.5000 Du        
   3057 ****        29.7500  19.0000  59.7500 Du        
   3058 ****        29.7500  19.0000  60.0000 Du        
   3059 ****        29.7500  19.0000  60.2500 Du        
   3060 ****        29.7500  19.0000  60.5000 Du        
   3061 ****        29.7500  19.2500  59.0000 Du        
   3062 ****        29.7500  19.2500  59.2500 Du        
   3063 ****        29.7500  19.2500  59.5000 Du        
   3064 ****        29.7500  19.2500  59.7500 Du        
   3065 ****        29.7500  19.2500  60.0000 Du        
   3066 ****        29.7500  19.2500  60.2500 Du        
   3067 ****        29.7500  19.2500  60.5000 Du        
   3068 ****        29.7500  19.5000  59.2500 Du        
   3069 ****        29.7500  19.5000  59.5000 Du        
   3070 ****        29.7500  19.5000  59.7500 Du        
   3071 ****        29.7500  19.5000  60.0000 Du        
   3072 ****        29.7500  19.5000  60.2500 Du        
   3073 ****        29.7500  19.5000  60.5000 Du        
   3074 ****        29.7500  19.7500  59.2500 Du        
   3075 ****        29.7500  19.7500  59.5000 Du        
   3076 ****        29.7500  19.7500  59.7500 Du        
   3077 ****        29.7500  19.7500  60.0000 Du        
   3078 ****        29.7500  19.7500  60.2500 Du        
   3079 ****        29.7500  19.7500  60.5000 Du        
   3080 ****        29.7500  20.0000  59.5000 Du        
   3081 ****        29.7500  20.0000  59.7500 Du        
   3082 ****        29.7500  20.0000  60.0000 Du        
   3083 ****        29.7500  20.0000  60.2500 Du        
   3084 ****        29.7500  20.2500  59.7500 Du        
   3085 ****        29.7500  20.2500  60.0000 Du        
   3086 ****        29.7500  20.2500  60.2500 Du        
   3087 ****        29.7500  23.0000  59.0000 Du        
   3088 ****        29.7500  23.0000  59.2500 Du        
   3089 ****        29.7500  23.0000  59.7500 Du        
   3090 ****        29.7500  23.2500  58.7500 Du        
   3091 ****        29.7500  23.2500  59.0000 Du        
   3092 ****        29.7500  23.2500  59.2500 Du        
   3093 ****        29.7500  23.2500  59.5000 Du        
   3094 ****        29.7500  23.2500  59.7500 Du        
   3095 ****        29.7500  23.2500  60.0000 Du        
   3096 ****        29.7500  23.5000  58.7500 Du        
   3097 ****        29.7500  23.5000  59.0000 Du        
   3098 ****        29.7500  23.5000  59.2500 Du        
   3099 ****        29.7500  23.5000  59.5000 Du        
   3100 ****        29.7500  23.5000  59.7500 Du        
   3101 ****        29.7500  23.5000  60.0000 Du        
   3102 ****        29.7500  23.7500  59.0000 Du        
   3103 ****        29.7500  23.7500  59.2500 Du        
   3104 ****        29.7500  23.7500  59.5000 Du        
   3105 ****        29.7500  23.7500  59.7500 Du        
   3106 ****        29.7500  23.7500  60.0000 Du        
   3107 ****        29.7500  24.0000  60.0000 Du        
   3108 ****        30.0000  15.0000  58.0000 Du        
   3109 ****        30.0000  15.0000  58.2500 Du        
   3110 ****        30.0000  15.2500  58.2500 Du        
   3111 ****        30.0000  15.2500  58.5000 Du        
   3112 ****        30.0000  15.5000  58.2500 Du        
   3113 ****        30.0000  15.5000  58.5000 Du        
   3114 ****        30.0000  15.5000  58.7500 Du        
   3115 ****        30.0000  15.7500  58.2500 Du        
   3116 ****        30.0000  15.7500  58.5000 Du        
   3117 ****        30.0000  15.7500  58.7500 Du        
   3118 ****        30.0000  15.7500  59.0000 Du        
   3119 ****        30.0000  15.7500  59.2500 Du        
   3120 ****        30.0000  16.0000  58.5000 Du        
   3121 ****        30.0000  16.0000  58.7500 Du        
   3122 ****        30.0000  16.0000  59.0000 Du        
   3123 ****        30.0000  16.0000  59.2500 Du        
   3124 ****        30.0000  16.2500  58.5000 Du        
   3125 ****        30.0000  16.2500  58.7500 Du        
   3126 ****        30.0000  16.2500  59.0000 Du        
   3127 ****        30.0000  16.2500  59.2500 Du        
   3128 ****        30.0000  16.2500  59.5000 Du        
   3129 ****        30.0000  16.5000  58.5000 Du        
   3130 ****        30.0000  16.5000  58.7500 Du        
   3131 ****        30.0000  16.5000  59.0000 Du        
   3132 ****        30.0000  16.5000  59.2500 Du        
   3133 ****        30.0000  16.5000  59.5000 Du        
   3134 ****        30.0000  16.7500  58.5000 Du        
   3135 ****        30.0000  16.7500  58.7500 Du        
   3136 ****        30.0000  16.7500  59.0000 Du        
   3137 ****        30.0000  16.7500  59.2500 Du        
   3138 ****        30.0000  16.7500  59.5000 Du        
   3139 ****        30.0000  16.7500  59.7500 Du        
   3140 ****        30.0000  17.0000  58.5000 Du        
   3141 ****        30.0000  17.0000  58.7500 Du        
   3142 ****        30.0000  17.0000  59.0000 Du        
   3143 ****        30.0000  17.0000  59.2500 Du        
   3144 ****        30.0000  17.0000  59.5000 Du        
   3145 ****        30.0000  17.0000  59.7500 Du        
   3146 ****        30.0000  17.2500  58.2500 Du        
   3147 ****        30.0000  17.2500  58.5000 Du        
   3148 ****        30.0000  17.2500  58.7500 Du        
   3149 ****        30.0000  17.2500  59.0000 Du        
   3150 ****        30.0000  17.2500  59.2500 Du        
   3151 ****        30.0000  17.2500  59.5000 Du        
   3152 ****        30.0000  17.2500  59.7500 Du        
   3153 ****        30.0000  17.2500  60.0000 Du        
   3154 ****        30.0000  17.5000  58.2500 Du        
   3155 ****        30.0000  17.5000  58.5000 Du        
   3156 ****        30.0000  17.5000  58.7500 Du        
   3157 ****        30.0000  17.5000  59.0000 Du        
   3158 ****        30.0000  17.5000  59.2500 Du        
   3159 ****        30.0000  17.5000  59.5000 Du        
   3160 ****        30.0000  17.5000  59.7500 Du        
   3161 ****        30.0000  17.5000  60.0000 Du        
   3162 ****        30.0000  17.7500  58.2500 Du        
   3163 ****        30.0000  17.7500  58.5000 Du        
   3164 ****        30.0000  17.7500  58.7500 Du        
   3165 ****        30.0000  17.7500  59.0000 Du        
   3166 ****        30.0000  17.7500  59.2500 Du        
   3167 ****        30.0000  17.7500  59.5000 Du        
   3168 ****        30.0000  17.7500  59.7500 Du        
   3169 ****        30.0000  17.7500  60.0000 Du        
   3170 ****        30.0000  17.7500  60.2500 Du        
   3171 ****        30.0000  18.0000  58.2500 Du        
   3172 ****        30.0000  18.0000  58.5000 Du        
   3173 ****        30.0000  18.0000  58.7500 Du        
   3174 ****        30.0000  18.0000  59.0000 Du        
   3175 ****        30.0000  18.0000  59.2500 Du        
   3176 ****        30.0000  18.0000  59.5000 Du        
   3177 ****        30.0000  18.0000  59.7500 Du        
   3178 ****        30.0000  18.0000  60.0000 Du        
   3179 ****        30.0000  18.0000  60.2500 Du        
   3180 ****        30.0000  18.2500  58.2500 Du        
   3181 ****        30.0000  18.2500  58.5000 Du        
   3182 ****        30.0000  18.2500  58.7500 Du        
   3183 ****        30.0000  18.2500  59.0000 Du        
   3184 ****        30.0000  18.2500  59.2500 Du        
   3185 ****        30.0000  18.2500  59.5000 Du        
   3186 ****        30.0000  18.2500  59.7500 Du        
   3187 ****        30.0000  18.2500  60.0000 Du        
   3188 ****        30.0000  18.2500  60.2500 Du        
   3189 ****        30.0000  18.2500  60.5000 Du        
   3190 ****        30.0000  18.5000  58.5000 Du        
   3191 ****        30.0000  18.5000  58.7500 Du        
   3192 ****        30.0000  18.5000  59.0000 Du        
   3193 ****        30.0000  18.5000  59.2500 Du        
   3194 ****        30.0000  18.5000  59.5000 Du        
   3195 ****        30.0000  18.5000  59.7500 Du        
   3196 ****        30.0000  18.5000  60.0000 Du        
   3197 ****        30.0000  18.5000  60.2500 Du        
   3198 ****        30.0000  18.5000  60.5000 Du        
   3199 ****        30.0000  18.7500  58.5000 Du        
   3200 ****        30.0000  18.7500  58.7500 Du        
   3201 ****        30.0000  18.7500  59.0000 Du        
   3202 ****        30.0000  18.7500  59.2500 Du        
   3203 ****        30.0000  18.7500  59.5000 Du        
   3204 ****        30.0000  18.7500  59.7500 Du        
   3205 ****        30.0000  18.7500  60.0000 Du        
   3206 ****        30.0000  18.7500  60.2500 Du        
   3207 ****        30.0000  18.7500  60.5000 Du        
   3208 ****        30.0000  19.0000  58.7500 Du        
   3209 ****        30.0000  19.0000  59.0000 Du        
   3210 ****        30.0000  19.0000  59.2500 Du        
   3211 ****        30.0000  19.0000  59.5000 Du        
   3212 ****        30.0000  19.0000  59.7500 Du        
   3213 ****        30.0000  19.0000  60.0000 Du        
   3214 ****        30.0000  19.0000  60.2500 Du        
   3215 ****        30.0000  19.0000  60.5000 Du        
   3216 ****        30.0000  19.2500  58.7500 Du        
   3217 ****        30.0000  19.2500  59.0000 Du        
   3218 ****        30.0000  19.2500  59.2500 Du        
   3219 ****        30.0000  19.2500  59.5000 Du        
   3220 ****        30.0000  19.2500  59.7500 Du        
   3221 ****        30.0000  19.2500  60.0000 Du        
   3222 ****        30.0000  19.2500  60.2500 Du        
   3223 ****        30.0000  19.2500  60.5000 Du        
   3224 ****        30.0000  19.5000  58.7500 Du        
   3225 ****        30.0000  19.5000  59.0000 Du        
   3226 ****        30.0000  19.5000  59.2500 Du        
   3227 ****        30.0000  19.5000  59.5000 Du        
   3228 ****        30.0000  19.5000  59.7500 Du        
   3229 ****        30.0000  19.5000  60.0000 Du        
   3230 ****        30.0000  19.5000  60.2500 Du        
   3231 ****        30.0000  19.5000  60.5000 Du        
   3232 ****        30.0000  19.7500  59.0000 Du        
   3233 ****        30.0000  19.7500  59.2500 Du        
   3234 ****        30.0000  19.7500  59.5000 Du        
   3235 ****        30.0000  19.7500  59.7500 Du        
   3236 ****        30.0000  19.7500  60.0000 Du        
   3237 ****        30.0000  19.7500  60.2500 Du        
   3238 ****        30.0000  20.0000  59.0000 Du        
   3239 ****        30.0000  20.0000  59.2500 Du        
   3240 ****        30.0000  20.0000  59.5000 Du        
   3241 ****        30.0000  20.0000  59.7500 Du        
   3242 ****        30.0000  20.0000  60.0000 Du        
   3243 ****        30.0000  20.0000  60.2500 Du        
   3244 ****        30.0000  20.2500  59.0000 Du        
   3245 ****        30.0000  20.2500  59.2500 Du        
   3246 ****        30.0000  20.2500  59.5000 Du        
   3247 ****        30.0000  20.2500  59.7500 Du        
   3248 ****        30.0000  20.2500  60.0000 Du        
   3249 ****        30.0000  20.2500  60.2500 Du        
   3250 ****        30.0000  20.5000  59.2500 Du        
   3251 ****        30.0000  20.5000  59.5000 Du        
   3252 ****        30.0000  20.5000  59.7500 Du        
   3253 ****        30.0000  20.5000  60.0000 Du        
   3254 ****        30.0000  20.5000  60.2500 Du        
   3255 ****        30.0000  20.7500  59.7500 Du        
   3256 ****        30.0000  20.7500  60.0000 Du        
   3257 ****        30.0000  21.0000  60.0000 Du        
   3258 ****        30.0000  22.2500  59.2500 Du        
   3259 ****        30.0000  22.5000  59.0000 Du        
   3260 ****        30.0000  22.5000  59.2500 Du        
   3261 ****        30.0000  22.5000  59.7500 Du        
   3262 ****        30.0000  22.7500  59.0000 Du        
   3263 ****        30.0000  22.7500  59.2500 Du        
   3264 ****        30.0000  22.7500  59.5000 Du        
   3265 ****        30.0000  22.7500  59.7500 Du        
   3266 ****        30.0000  22.7500  60.0000 Du        
   3267 ****        30.0000  23.0000  58.7500 Du        
   3268 ****        30.0000  23.0000  59.0000 Du        
   3269 ****        30.0000  23.0000  59.2500 Du        
   3270 ****        30.0000  23.0000  59.5000 Du        
   3271 ****        30.0000  23.0000  59.7500 Du        
   3272 ****        30.0000  23.0000  60.0000 Du        
   3273 ****        30.0000  23.2500  58.7500 Du        
   3274 ****        30.0000  23.2500  59.0000 Du        
   3275 ****        30.0000  23.2500  59.2500 Du        
   3276 ****        30.0000  23.2500  59.5000 Du        
   3277 ****        30.0000  23.2500  59.7500 Du        
   3278 ****        30.0000  23.2500  60.0000 Du        
   3279 ****        30.0000  23.5000  58.7500 Du        
   3280 ****        30.0000  23.5000  59.0000 Du        
   3281 ****        30.0000  23.5000  59.2500 Du        
   3282 ****        30.0000  23.5000  59.5000 Du        
   3283 ****        30.0000  23.5000  59.7500 Du        
   3284 ****        30.0000  23.5000  60.0000 Du        
   3285 ****        30.0000  23.7500  58.7500 Du        
   3286 ****        30.0000  23.7500  59.0000 Du        
   3287 ****        30.0000  23.7500  59.2500 Du        
   3288 ****        30.0000  23.7500  59.5000 Du        
   3289 ****        30.0000  23.7500  59.7500 Du        
   3290 ****        30.0000  23.7500  60.0000 Du        
   3291 ****        30.0000  24.0000  59.7500 Du        
   3292 ****        30.2500  13.7500  57.0000 Du        
   3293 ****        30.2500  14.0000  57.2500 Du        
   3294 ****        30.2500  14.2500  57.5000 Du        
   3295 ****        30.2500  14.2500  57.7500 Du        
   3296 ****        30.2500  14.5000  57.7500 Du        
   3297 ****        30.2500  14.5000  58.0000 Du        
   3298 ****        30.2500  14.7500  57.7500 Du        
   3299 ****        30.2500  14.7500  58.0000 Du        
   3300 ****        30.2500  14.7500  58.2500 Du        
   3301 ****        30.2500  15.0000  58.0000 Du        
   3302 ****        30.2500  15.0000  58.2500 Du        
   3303 ****        30.2500  15.0000  58.5000 Du        
   3304 ****        30.2500  15.2500  58.0000 Du        
   3305 ****        30.2500  15.2500  58.2500 Du        
   3306 ****        30.2500  15.2500  58.5000 Du        
   3307 ****        30.2500  15.2500  58.7500 Du        
   3308 ****        30.2500  15.5000  58.2500 Du        
   3309 ****        30.2500  15.5000  58.5000 Du        
   3310 ****        30.2500  15.5000  58.7500 Du        
   3311 ****        30.2500  15.5000  59.0000 Du        
   3312 ****        30.2500  15.7500  58.2500 Du        
   3313 ****        30.2500  15.7500  58.5000 Du        
   3314 ****        30.2500  15.7500  58.7500 Du        
   3315 ****        30.2500  15.7500  59.0000 Du        
   3316 ****        30.2500  16.0000  58.2500 Du        
   3317 ****        30.2500  16.0000  58.5000 Du        
   3318 ****        30.2500  16.0000  58.7500 Du        
   3319 ****        30.2500  16.0000  59.0000 Du        
   3320 ****        30.2500  16.2500  58.2500 Du        
   3321 ****        30.2500  16.2500  58.5000 Du        
   3322 ****        30.2500  16.2500  58.7500 Du        
   3323 ****        30.2500  16.2500  59.0000 Du        
   3324 ****        30.2500  16.2500  59.2500 Du        
   3325 ****        30.2500  16.5000  58.2500 Du        
   3326 ****        30.2500  16.5000  58.5000 Du        
   3327 ****        30.2500  16.5000  58.7500 Du        
   3328 ****        30.2500  16.5000  59.0000 Du        
   3329 ****        30.2500  16.5000  59.2500 Du        
   3330 ****        30.2500  16.7500  58.2500 Du        
   3331 ****        30.2500  16.7500  58.5000 Du        
   3332 ****        30.2500  16.7500  58.7500 Du        
   3333 ****        30.2500  16.7500  59.0000 Du        
   3334 ****        30.2500  16.7500  59.2500 Du        
   3335 ****        30.2500  16.7500  59.5000 Du        
   3336 ****        30.2500  17.0000  58.2500 Du        
   3337 ****        30.2500  17.0000  58.5000 Du        
   3338 ****        30.2500  17.0000  58.7500 Du        
   3339 ****        30.2500  17.0000  59.0000 Du        
   3340 ****        30.2500  17.0000  59.2500 Du        
   3341 ****        30.2500  17.0000  59.5000 Du        
   3342 ****        30.2500  17.2500  58.2500 Du        
   3343 ****        30.2500  17.2500  58.5000 Du        
   3344 ****        30.2500  17.2500  58.7500 Du        
   3345 ****        30.2500  17.2500  59.0000 Du        
   3346 ****        30.2500  17.2500  59.2500 Du        
   3347 ****        30.2500  17.2500  59.5000 Du        
   3348 ****        30.2500  17.2500  59.7500 Du        
   3349 ****        30.2500  17.5000  58.2500 Du        
   3350 ****        30.2500  17.5000  58.5000 Du        
   3351 ****        30.2500  17.5000  58.7500 Du        
   3352 ****        30.2500  17.5000  59.0000 Du        
   3353 ****        30.2500  17.5000  59.2500 Du        
   3354 ****        30.2500  17.5000  59.5000 Du        
   3355 ****        30.2500  17.5000  59.7500 Du        
   3356 ****        30.2500  17.5000  60.0000 Du        
   3357 ****        30.2500  17.7500  58.2500 Du        
   3358 ****        30.2500  17.7500  58.5000 Du        
   3359 ****        30.2500  17.7500  58.7500 Du        
   3360 ****        30.2500  17.7500  59.0000 Du        
   3361 ****        30.2500  17.7500  59.2500 Du        
   3362 ****        30.2500  17.7500  59.5000 Du        
   3363 ****        30.2500  17.7500  59.7500 Du        
   3364 ****        30.2500  17.7500  60.0000 Du        
   3365 ****        30.2500  17.7500  60.2500 Du        
   3366 ****        30.2500  18.0000  58.2500 Du        
   3367 ****        30.2500  18.0000  58.5000 Du        
   3368 ****        30.2500  18.0000  58.7500 Du        
   3369 ****        30.2500  18.0000  59.0000 Du        
   3370 ****        30.2500  18.0000  59.2500 Du        
   3371 ****        30.2500  18.0000  59.5000 Du        
   3372 ****        30.2500  18.0000  59.7500 Du        
   3373 ****        30.2500  18.0000  60.0000 Du        
   3374 ****        30.2500  18.0000  60.2500 Du        
   3375 ****        30.2500  18.0000  60.5000 Du        
   3376 ****        30.2500  18.2500  58.2500 Du        
   3377 ****        30.2500  18.2500  58.5000 Du        
   3378 ****        30.2500  18.2500  58.7500 Du        
   3379 ****        30.2500  18.2500  59.0000 Du        
   3380 ****        30.2500  18.2500  59.2500 Du        
   3381 ****        30.2500  18.2500  59.5000 Du        
   3382 ****        30.2500  18.2500  59.7500 Du        
   3383 ****        30.2500  18.2500  60.0000 Du        
   3384 ****        30.2500  18.2500  60.2500 Du        
   3385 ****        30.2500  18.2500  60.5000 Du        
   3386 ****        30.2500  18.5000  58.2500 Du        
   3387 ****        30.2500  18.5000  58.5000 Du        
   3388 ****        30.2500  18.5000  58.7500 Du        
   3389 ****        30.2500  18.5000  59.0000 Du        
   3390 ****        30.2500  18.5000  59.2500 Du        
   3391 ****        30.2500  18.5000  59.5000 Du        
   3392 ****        30.2500  18.5000  59.7500 Du        
   3393 ****        30.2500  18.5000  60.0000 Du        
   3394 ****        30.2500  18.5000  60.2500 Du        
   3395 ****        30.2500  18.5000  60.5000 Du        
   3396 ****        30.2500  18.7500  58.2500 Du        
   3397 ****        30.2500  18.7500  58.5000 Du        
   3398 ****        30.2500  18.7500  58.7500 Du        
   3399 ****        30.2500  18.7500  59.0000 Du        
   3400 ****        30.2500  18.7500  59.2500 Du        
   3401 ****        30.2500  18.7500  59.5000 Du        
   3402 ****        30.2500  18.7500  59.7500 Du        
   3403 ****        30.2500  18.7500  60.0000 Du        
   3404 ****        30.2500  18.7500  60.2500 Du        
   3405 ****        30.2500  18.7500  60.5000 Du        
   3406 ****        30.2500  19.0000  58.2500 Du        
   3407 ****        30.2500  19.0000  58.5000 Du        
   3408 ****        30.2500  19.0000  58.7500 Du        
   3409 ****        30.2500  19.0000  59.0000 Du        
   3410 ****        30.2500  19.0000  59.2500 Du        
   3411 ****        30.2500  19.0000  59.5000 Du        
   3412 ****        30.2500  19.0000  59.7500 Du        
   3413 ****        30.2500  19.0000  60.0000 Du        
   3414 ****        30.2500  19.0000  60.2500 Du        
   3415 ****        30.2500  19.0000  60.5000 Du        
   3416 ****        30.2500  19.2500  58.2500 Du        
   3417 ****        30.2500  19.2500  58.5000 Du        
   3418 ****        30.2500  19.2500  58.7500 Du        
   3419 ****        30.2500  19.2500  59.0000 Du        
   3420 ****        30.2500  19.2500  59.2500 Du        
   3421 ****        30.2500  19.2500  59.5000 Du        
   3422 ****        30.2500  19.2500  59.7500 Du        
   3423 ****        30.2500  19.2500  60.0000 Du        
   3424 ****        30.2500  19.2500  60.2500 Du        
   3425 ****        30.2500  19.2500  60.5000 Du        
   3426 ****        30.2500  19.5000  58.5000 Du        
   3427 ****        30.2500  19.5000  58.7500 Du        
   3428 ****        30.2500  19.5000  59.0000 Du        
   3429 ****        30.2500  19.5000  59.2500 Du        
   3430 ****        30.2500  19.5000  59.5000 Du        
   3431 ****        30.2500  19.5000  59.7500 Du        
   3432 ****        30.2500  19.5000  60.0000 Du        
   3433 ****        30.2500  19.5000  60.2500 Du        
   3434 ****        30.2500  19.7500  58.5000 Du        
   3435 ****        30.2500  19.7500  58.7500 Du        
   3436 ****        30.2500  19.7500  59.0000 Du        
   3437 ****        30.2500  19.7500  59.2500 Du        
   3438 ****        30.2500  19.7500  59.5000 Du        
   3439 ****        30.2500  19.7500  59.7500 Du        
   3440 ****        30.2500  19.7500  60.0000 Du        
   3441 ****        30.2500  19.7500  60.2500 Du        
   3442 ****        30.2500  20.0000  58.5000 Du        
   3443 ****        30.2500  20.0000  58.7500 Du        
   3444 ****        30.2500  20.0000  59.0000 Du        
   3445 ****        30.2500  20.0000  59.2500 Du        
   3446 ****        30.2500  20.0000  59.5000 Du        
   3447 ****        30.2500  20.0000  59.7500 Du        
   3448 ****        30.2500  20.0000  60.0000 Du        
   3449 ****        30.2500  20.0000  60.2500 Du        
   3450 ****        30.2500  20.2500  58.5000 Du        
   3451 ****        30.2500  20.2500  58.7500 Du        
   3452 ****        30.2500  20.2500  59.0000 Du        
   3453 ****        30.2500  20.2500  59.2500 Du        
   3454 ****        30.2500  20.2500  59.5000 Du        
   3455 ****        30.2500  20.2500  59.7500 Du        
   3456 ****        30.2500  20.2500  60.0000 Du        
   3457 ****        30.2500  20.2500  60.2500 Du        
   3458 ****        30.2500  20.5000  58.5000 Du        
   3459 ****        30.2500  20.5000  58.7500 Du        
   3460 ****        30.2500  20.5000  59.0000 Du        
   3461 ****        30.2500  20.5000  59.2500 Du        
   3462 ****        30.2500  20.5000  59.5000 Du        
   3463 ****        30.2500  20.5000  59.7500 Du        
   3464 ****        30.2500  20.5000  60.0000 Du        
   3465 ****        30.2500  20.7500  58.5000 Du        
   3466 ****        30.2500  20.7500  58.7500 Du        
   3467 ****        30.2500  20.7500  59.0000 Du        
   3468 ****        30.2500  20.7500  59.2500 Du        
   3469 ****        30.2500  20.7500  59.5000 Du        
   3470 ****        30.2500  20.7500  59.7500 Du        
   3471 ****        30.2500  20.7500  60.0000 Du        
   3472 ****        30.2500  21.0000  58.7500 Du        
   3473 ****        30.2500  21.0000  59.0000 Du        
   3474 ****        30.2500  21.0000  59.2500 Du        
   3475 ****        30.2500  21.0000  59.5000 Du        
   3476 ****        30.2500  21.0000  59.7500 Du        
   3477 ****        30.2500  21.0000  60.0000 Du        
   3478 ****        30.2500  21.2500  58.7500 Du        
   3479 ****        30.2500  21.2500  59.0000 Du        
   3480 ****        30.2500  21.2500  59.2500 Du        
   3481 ****        30.2500  21.2500  59.5000 Du        
   3482 ****        30.2500  21.2500  59.7500 Du        
   3483 ****        30.2500  21.2500  60.0000 Du        
   3484 ****        30.2500  21.5000  58.7500 Du        
   3485 ****        30.2500  21.5000  59.0000 Du        
   3486 ****        30.2500  21.5000  59.2500 Du        
   3487 ****        30.2500  21.5000  59.5000 Du        
   3488 ****        30.2500  21.5000  59.7500 Du        
   3489 ****        30.2500  21.7500  58.7500 Du        
   3490 ****        30.2500  21.7500  59.0000 Du        
   3491 ****        30.2500  21.7500  59.2500 Du        
   3492 ****        30.2500  21.7500  59.5000 Du        
   3493 ****        30.2500  21.7500  59.7500 Du        
   3494 ****        30.2500  21.7500  60.0000 Du        
   3495 ****        30.2500  22.0000  59.0000 Du        
   3496 ****        30.2500  22.0000  59.2500 Du        
   3497 ****        30.2500  22.0000  59.5000 Du        
   3498 ****        30.2500  22.0000  59.7500 Du        
   3499 ****        30.2500  22.2500  59.0000 Du        
   3500 ****        30.2500  22.2500  59.2500 Du        
   3501 ****        30.2500  22.2500  59.5000 Du        
   3502 ****        30.2500  22.2500  59.7500 Du        
   3503 ****        30.2500  22.2500  60.0000 Du        
   3504 ****        30.2500  22.5000  58.7500 Du        
   3505 ****        30.2500  22.5000  59.0000 Du        
   3506 ****        30.2500  22.5000  59.2500 Du        
   3507 ****        30.2500  22.5000  59.5000 Du        
   3508 ****        30.2500  22.5000  59.7500 Du        
   3509 ****        30.2500  22.5000  60.0000 Du        
   3510 ****        30.2500  22.7500  58.7500 Du        
   3511 ****        30.2500  22.7500  59.0000 Du        
   3512 ****        30.2500  22.7500  59.2500 Du        
   3513 ****        30.2500  22.7500  59.5000 Du        
   3514 ****        30.2500  22.7500  59.7500 Du        
   3515 ****        30.2500  22.7500  60.0000 Du        
   3516 ****        30.2500  23.0000  58.7500 Du        
   3517 ****        30.2500  23.0000  59.0000 Du        
   3518 ****        30.2500  23.0000  59.2500 Du        
   3519 ****        30.2500  23.0000  59.5000 Du        
   3520 ****        30.2500  23.0000  59.7500 Du        
   3521 ****        30.2500  23.0000  60.0000 Du        
   3522 ****        30.2500  23.2500  58.7500 Du        
   3523 ****        30.2500  23.2500  59.0000 Du        
   3524 ****        30.2500  23.2500  59.2500 Du        
   3525 ****        30.2500  23.2500  59.5000 Du        
   3526 ****        30.2500  23.2500  59.7500 Du        
   3527 ****        30.2500  23.2500  60.0000 Du        
   3528 ****        30.2500  23.5000  58.7500 Du        
   3529 ****        30.2500  23.5000  59.0000 Du        
   3530 ****        30.2500  23.5000  59.2500 Du        
   3531 ****        30.2500  23.5000  59.5000 Du        
   3532 ****        30.2500  23.5000  59.7500 Du        
   3533 ****        30.2500  23.5000  60.0000 Du        
   3534 ****        30.2500  23.7500  58.7500 Du        
   3535 ****        30.2500  23.7500  59.0000 Du        
   3536 ****        30.2500  23.7500  59.2500 Du        
   3537 ****        30.2500  23.7500  59.5000 Du        
   3538 ****        30.2500  23.7500  59.7500 Du        
   3539 ****        30.2500  23.7500  60.0000 Du        
   3540 ****        30.2500  24.0000  59.2500 Du        
   3541 ****        30.2500  24.0000  60.0000 Du        
   3542 ****        30.5000  13.0000  56.7500 Du        
   3543 ****        30.5000  13.0000  57.0000 Du        
   3544 ****        30.5000  13.2500  56.7500 Du        
   3545 ****        30.5000  13.2500  57.0000 Du        
   3546 ****        30.5000  13.2500  57.2500 Du        
   3547 ****        30.5000  13.5000  56.7500 Du        
   3548 ****        30.5000  13.5000  57.0000 Du        
   3549 ****        30.5000  13.5000  57.2500 Du        
   3550 ****        30.5000  13.7500  57.0000 Du        
   3551 ****        30.5000  13.7500  57.2500 Du        
   3552 ****        30.5000  13.7500  57.5000 Du        
   3553 ****        30.5000  14.0000  57.0000 Du        
   3554 ****        30.5000  14.0000  57.2500 Du        
   3555 ****        30.5000  14.0000  57.5000 Du        
   3556 ****        30.5000  14.0000  57.7500 Du        
   3557 ****        30.5000  14.2500  57.2500 Du        
   3558 ****        30.5000  14.2500  57.5000 Du        
   3559 ****        30.5000  14.2500  57.7500 Du        
   3560 ****        30.5000  14.2500  58.0000 Du        
   3561 ****        30.5000  14.5000  57.5000 Du        
   3562 ****        30.5000  14.5000  57.7500 Du        
   3563 ****        30.5000  14.5000  58.0000 Du        
   3564 ****        30.5000  14.5000  58.2500 Du        
   3565 ****        30.5000  14.7500  57.7500 Du        
   3566 ****        30.5000  14.7500  58.0000 Du        
   3567 ****        30.5000  14.7500  58.2500 Du        
   3568 ****        30.5000  14.7500  58.5000 Du        
   3569 ****        30.5000  15.0000  57.7500 Du        
   3570 ****        30.5000  15.0000  58.0000 Du        
   3571 ****        30.5000  15.0000  58.2500 Du        
   3572 ****        30.5000  15.0000  58.5000 Du        
   3573 ****        30.5000  15.0000  58.7500 Du        
   3574 ****        30.5000  15.2500  58.0000 Du        
   3575 ****        30.5000  15.2500  58.2500 Du        
   3576 ****        30.5000  15.2500  58.5000 Du        
   3577 ****        30.5000  15.2500  58.7500 Du        
   3578 ****        30.5000  15.5000  58.0000 Du        
   3579 ****        30.5000  15.5000  58.2500 Du        
   3580 ****        30.5000  15.5000  58.5000 Du        
   3581 ****        30.5000  15.5000  58.7500 Du        
   3582 ****        30.5000  15.7500  58.2500 Du        
   3583 ****        30.5000  15.7500  58.5000 Du        
   3584 ****        30.5000  15.7500  58.7500 Du        
   3585 ****        30.5000  16.0000  58.2500 Du        
   3586 ****        30.5000  16.0000  58.5000 Du        
   3587 ****        30.5000  16.0000  58.7500 Du        
   3588 ****        30.5000  16.2500  58.2500 Du        
   3589 ****        30.5000  16.2500  58.5000 Du        
   3590 ****        30.5000  16.2500  58.7500 Du        
   3591 ****        30.5000  16.5000  58.2500 Du        
   3592 ****        30.5000  16.5000  58.5000 Du        
   3593 ****        30.5000  16.5000  58.7500 Du        
   3594 ****        30.5000  16.5000  59.0000 Du        
   3595 ****        30.5000  16.7500  58.2500 Du        
   3596 ****        30.5000  16.7500  58.5000 Du        
   3597 ****        30.5000  16.7500  58.7500 Du        
   3598 ****        30.5000  16.7500  59.0000 Du        
   3599 ****        30.5000  17.0000  58.2500 Du        
   3600 ****        30.5000  17.0000  58.5000 Du        
   3601 ****        30.5000  17.0000  58.7500 Du        
   3602 ****        30.5000  17.0000  59.0000 Du        
   3603 ****        30.5000  17.0000  59.2500 Du        
   3604 ****        30.5000  17.2500  58.2500 Du        
   3605 ****        30.5000  17.2500  58.5000 Du        
   3606 ****        30.5000  17.2500  58.7500 Du        
   3607 ****        30.5000  17.2500  59.0000 Du        
   3608 ****        30.5000  17.2500  59.2500 Du        
   3609 ****        30.5000  17.5000  58.2500 Du        
   3610 ****        30.5000  17.5000  58.5000 Du        
   3611 ****        30.5000  17.5000  58.7500 Du        
   3612 ****        30.5000  17.5000  59.0000 Du        
   3613 ****        30.5000  17.5000  59.2500 Du        
   3614 ****        30.5000  17.5000  59.5000 Du        
   3615 ****        30.5000  17.7500  58.2500 Du        
   3616 ****        30.5000  17.7500  58.5000 Du        
   3617 ****        30.5000  17.7500  58.7500 Du        
   3618 ****        30.5000  17.7500  59.0000 Du        
   3619 ****        30.5000  17.7500  59.2500 Du        
   3620 ****        30.5000  17.7500  59.5000 Du        
   3621 ****        30.5000  17.7500  59.7500 Du        
   3622 ****        30.5000  17.7500  60.0000 Du        
   3623 ****        30.5000  18.0000  58.2500 Du        
   3624 ****        30.5000  18.0000  58.5000 Du        
   3625 ****        30.5000  18.0000  58.7500 Du        
   3626 ****        30.5000  18.0000  59.0000 Du        
   3627 ****        30.5000  18.0000  59.2500 Du        
   3628 ****        30.5000  18.0000  59.5000 Du        
   3629 ****        30.5000  18.0000  59.7500 Du        
   3630 ****        30.5000  18.0000  60.0000 Du        
   3631 ****        30.5000  18.0000  60.2500 Du        
   3632 ****        30.5000  18.2500  58.0000 Du        
   3633 ****        30.5000  18.2500  58.2500 Du        
   3634 ****        30.5000  18.2500  58.5000 Du        
   3635 ****        30.5000  18.2500  58.7500 Du        
   3636 ****        30.5000  18.2500  59.0000 Du        
   3637 ****        30.5000  18.2500  59.2500 Du        
   3638 ****        30.5000  18.2500  59.5000 Du        
   3639 ****        30.5000  18.2500  59.7500 Du        
   3640 ****        30.5000  18.2500  60.0000 Du        
   3641 ****        30.5000  18.2500  60.2500 Du        
   3642 ****        30.5000  18.5000  58.2500 Du        
   3643 ****        30.5000  18.5000  58.5000 Du        
   3644 ****        30.5000  18.5000  58.7500 Du        
   3645 ****        30.5000  18.5000  59.0000 Du        
   3646 ****        30.5000  18.5000  59.2500 Du        
   3647 ****        30.5000  18.5000  59.5000 Du        
   3648 ****        30.5000  18.5000  59.7500 Du        
   3649 ****        30.5000  18.5000  60.0000 Du        
   3650 ****        30.5000  18.5000  60.2500 Du        
   3651 ****        30.5000  18.7500  58.0000 Du        
   3652 ****        30.5000  18.7500  58.2500 Du        
   3653 ****        30.5000  18.7500  58.5000 Du        
   3654 ****        30.5000  18.7500  58.7500 Du        
   3655 ****        30.5000  18.7500  59.0000 Du        
   3656 ****        30.5000  18.7500  59.2500 Du        
   3657 ****        30.5000  18.7500  59.5000 Du        
   3658 ****        30.5000  18.7500  59.7500 Du        
   3659 ****        30.5000  18.7500  60.0000 Du        
   3660 ****        30.5000  18.7500  60.2500 Du        
   3661 ****        30.5000  18.7500  60.5000 Du        
   3662 ****        30.5000  19.0000  58.0000 Du        
   3663 ****        30.5000  19.0000  58.2500 Du        
   3664 ****        30.5000  19.0000  58.5000 Du        
   3665 ****        30.5000  19.0000  58.7500 Du        
   3666 ****        30.5000  19.0000  59.0000 Du        
   3667 ****        30.5000  19.0000  59.2500 Du        
   3668 ****        30.5000  19.0000  59.5000 Du        
   3669 ****        30.5000  19.0000  59.7500 Du        
   3670 ****        30.5000  19.0000  60.0000 Du        
   3671 ****        30.5000  19.0000  60.2500 Du        
   3672 ****        30.5000  19.2500  58.0000 Du        
   3673 ****        30.5000  19.2500  58.2500 Du        
   3674 ****        30.5000  19.2500  58.5000 Du        
   3675 ****        30.5000  19.2500  58.7500 Du        
   3676 ****        30.5000  19.2500  59.0000 Du        
   3677 ****        30.5000  19.2500  59.2500 Du        
   3678 ****        30.5000  19.2500  59.5000 Du        
   3679 ****        30.5000  19.2500  59.7500 Du        
   3680 ****        30.5000  19.2500  60.0000 Du        
   3681 ****        30.5000  19.2500  60.2500 Du        
   3682 ****        30.5000  19.5000  58.2500 Du        
   3683 ****        30.5000  19.5000  58.5000 Du        
   3684 ****        30.5000  19.5000  58.7500 Du        
   3685 ****        30.5000  19.5000  59.0000 Du        
   3686 ****        30.5000  19.5000  59.2500 Du        
   3687 ****        30.5000  19.5000  59.5000 Du        
   3688 ****        30.5000  19.5000  59.7500 Du        
   3689 ****        30.5000  19.5000  60.0000 Du        
   3690 ****        30.5000  19.5000  60.2500 Du        
   3691 ****        30.5000  19.7500  58.0000 Du        
   3692 ****        30.5000  19.7500  58.2500 Du        
   3693 ****        30.5000  19.7500  58.5000 Du        
   3694 ****        30.5000  19.7500  58.7500 Du        
   3695 ****        30.5000  19.7500  59.0000 Du        
   3696 ****        30.5000  19.7500  59.2500 Du        
   3697 ****        30.5000  19.7500  59.5000 Du        
   3698 ****        30.5000  19.7500  59.7500 Du        
   3699 ****        30.5000  19.7500  60.0000 Du        
   3700 ****        30.5000  19.7500  60.2500 Du        
   3701 ****        30.5000  20.0000  58.0000 Du        
   3702 ****        30.5000  20.0000  58.2500 Du        
   3703 ****        30.5000  20.0000  58.5000 Du        
   3704 ****        30.5000  20.0000  58.7500 Du        
   3705 ****        30.5000  20.0000  59.0000 Du        
   3706 ****        30.5000  20.0000  59.2500 Du        
   3707 ****        30.5000  20.0000  59.5000 Du        
   3708 ****        30.5000  20.0000  59.7500 Du        
   3709 ****        30.5000  20.0000  60.0000 Du        
   3710 ****        30.5000  20.0000  60.2500 Du        
   3711 ****        30.5000  20.2500  58.0000 Du        
   3712 ****        30.5000  20.2500  58.2500 Du        
   3713 ****        30.5000  20.2500  58.5000 Du        
   3714 ****        30.5000  20.2500  58.7500 Du        
   3715 ****        30.5000  20.2500  59.0000 Du        
   3716 ****        30.5000  20.2500  59.2500 Du        
   3717 ****        30.5000  20.2500  59.5000 Du        
   3718 ****        30.5000  20.2500  59.7500 Du        
   3719 ****        30.5000  20.2500  60.0000 Du        
   3720 ****        30.5000  20.2500  60.2500 Du        
   3721 ****        30.5000  20.5000  58.0000 Du        
   3722 ****        30.5000  20.5000  58.2500 Du        
   3723 ****        30.5000  20.5000  58.5000 Du        
   3724 ****        30.5000  20.5000  58.7500 Du        
   3725 ****        30.5000  20.5000  59.0000 Du        
   3726 ****        30.5000  20.5000  59.2500 Du        
   3727 ****        30.5000  20.5000  59.5000 Du        
   3728 ****        30.5000  20.5000  59.7500 Du        
   3729 ****        30.5000  20.5000  60.0000 Du        
   3730 ****        30.5000  20.7500  58.2500 Du        
   3731 ****        30.5000  20.7500  58.5000 Du        
   3732 ****        30.5000  20.7500  58.7500 Du        
   3733 ****        30.5000  20.7500  59.0000 Du        
   3734 ****        30.5000  20.7500  59.2500 Du        
   3735 ****        30.5000  20.7500  59.5000 Du        
   3736 ****        30.5000  20.7500  59.7500 Du        
   3737 ****        30.5000  20.7500  60.0000 Du        
   3738 ****        30.5000  21.0000  58.2500 Du        
   3739 ****        30.5000  21.0000  58.5000 Du        
   3740 ****        30.5000  21.0000  58.7500 Du        
   3741 ****        30.5000  21.0000  59.0000 Du        
   3742 ****        30.5000  21.0000  59.2500 Du        
   3743 ****        30.5000  21.0000  59.5000 Du        
   3744 ****        30.5000  21.0000  59.7500 Du        
   3745 ****        30.5000  21.0000  60.0000 Du        
   3746 ****        30.5000  21.2500  58.5000 Du        
   3747 ****        30.5000  21.2500  58.7500 Du        
   3748 ****        30.5000  21.2500  59.0000 Du        
   3749 ****        30.5000  21.2500  59.2500 Du        
   3750 ****        30.5000  21.2500  59.5000 Du        
   3751 ****        30.5000  21.2500  59.7500 Du        
   3752 ****        30.5000  21.2500  60.0000 Du        
   3753 ****        30.5000  21.5000  58.7500 Du        
   3754 ****        30.5000  21.5000  59.0000 Du        
   3755 ****        30.5000  21.5000  59.2500 Du        
   3756 ****        30.5000  21.5000  59.5000 Du        
   3757 ****        30.5000  21.5000  59.7500 Du        
   3758 ****        30.5000  21.7500  58.7500 Du        
   3759 ****        30.5000  21.7500  59.0000 Du        
   3760 ****        30.5000  21.7500  59.2500 Du        
   3761 ****        30.5000  21.7500  59.5000 Du        
   3762 ****        30.5000  21.7500  59.7500 Du        
   3763 ****        30.5000  22.0000  58.7500 Du        
   3764 ****        30.5000  22.0000  59.0000 Du        
   3765 ****        30.5000  22.0000  59.2500 Du        
   3766 ****        30.5000  22.0000  59.5000 Du        
   3767 ****        30.5000  22.0000  59.7500 Du        
   3768 ****        30.5000  22.2500  58.7500 Du        
   3769 ****        30.5000  22.2500  59.0000 Du        
   3770 ****        30.5000  22.2500  59.2500 Du        
   3771 ****        30.5000  22.2500  59.5000 Du        
   3772 ****        30.5000  22.2500  59.7500 Du        
   3773 ****        30.5000  22.5000  58.7500 Du        
   3774 ****        30.5000  22.5000  59.0000 Du        
   3775 ****        30.5000  22.5000  59.2500 Du        
   3776 ****        30.5000  22.5000  59.5000 Du        
   3777 ****        30.5000  22.5000  59.7500 Du        
   3778 ****        30.5000  22.5000  60.0000 Du        
   3779 ****        30.5000  22.7500  58.7500 Du        
   3780 ****        30.5000  22.7500  59.0000 Du        
   3781 ****        30.5000  22.7500  59.2500 Du        
   3782 ****        30.5000  22.7500  59.5000 Du        
   3783 ****        30.5000  22.7500  59.7500 Du        
   3784 ****        30.5000  22.7500  60.0000 Du        
   3785 ****        30.5000  23.0000  58.7500 Du        
   3786 ****        30.5000  23.0000  59.0000 Du        
   3787 ****        30.5000  23.0000  59.2500 Du        
   3788 ****        30.5000  23.0000  59.5000 Du        
   3789 ****        30.5000  23.0000  59.7500 Du        
   3790 ****        30.5000  23.0000  60.0000 Du        
   3791 ****        30.5000  23.2500  58.7500 Du        
   3792 ****        30.5000  23.2500  59.0000 Du        
   3793 ****        30.5000  23.2500  59.2500 Du        
   3794 ****        30.5000  23.2500  59.5000 Du        
   3795 ****        30.5000  23.2500  59.7500 Du        
   3796 ****        30.5000  23.2500  60.0000 Du        
   3797 ****        30.5000  23.5000  58.7500 Du        
   3798 ****        30.5000  23.5000  59.0000 Du        
   3799 ****        30.5000  23.5000  59.2500 Du        
   3800 ****        30.5000  23.5000  59.5000 Du        
   3801 ****        30.5000  23.5000  59.7500 Du        
   3802 ****        30.5000  23.7500  58.7500 Du        
   3803 ****        30.5000  23.7500  59.0000 Du        
   3804 ****        30.5000  23.7500  59.2500 Du        
   3805 ****        30.5000  23.7500  59.5000 Du        
   3806 ****        30.5000  23.7500  59.7500 Du        
   3807 ****        30.5000  24.0000  59.0000 Du        
   3808 ****        30.5000  24.0000  59.2500 Du        
   3809 ****        30.5000  24.0000  59.7500 Du        
   3810 ****        30.7500  12.7500  56.7500 Du        
   3811 ****        30.7500  12.7500  57.0000 Du        
   3812 ****        30.7500  13.0000  56.5000 Du        
   3813 ****        30.7500  13.0000  56.7500 Du        
   3814 ****        30.7500  13.0000  57.0000 Du        
   3815 ****        30.7500  13.0000  57.2500 Du        
   3816 ****        30.7500  13.2500  56.5000 Du        
   3817 ****        30.7500  13.2500  56.7500 Du        
   3818 ****        30.7500  13.2500  57.0000 Du        
   3819 ****        30.7500  13.2500  57.2500 Du        
   3820 ****        30.7500  13.2500  57.5000 Du        
   3821 ****        30.7500  13.5000  56.7500 Du        
   3822 ****        30.7500  13.5000  57.0000 Du        
   3823 ****        30.7500  13.5000  57.2500 Du        
   3824 ****        30.7500  13.5000  57.5000 Du        
   3825 ****        30.7500  13.5000  57.7500 Du        
   3826 ****        30.7500  13.7500  56.7500 Du        
   3827 ****        30.7500  13.7500  57.0000 Du        
   3828 ****        30.7500  13.7500  57.2500 Du        
   3829 ****        30.7500  13.7500  57.5000 Du        
   3830 ****        30.7500  13.7500  57.7500 Du        
   3831 ****        30.7500  13.7500  58.0000 Du        
   3832 ****        30.7500  14.0000  57.0000 Du        
   3833 ****        30.7500  14.0000  57.2500 Du        
   3834 ****        30.7500  14.0000  57.5000 Du        
   3835 ****        30.7500  14.0000  57.7500 Du        
   3836 ****        30.7500  14.0000  58.0000 Du        
   3837 ****        30.7500  14.0000  58.2500 Du        
   3838 ****        30.7500  14.2500  57.2500 Du        
   3839 ****        30.7500  14.2500  57.5000 Du        
   3840 ****        30.7500  14.2500  57.7500 Du        
   3841 ****        30.7500  14.2500  58.0000 Du        
   3842 ****        30.7500  14.2500  58.2500 Du        
   3843 ****        30.7500  14.5000  57.5000 Du        
   3844 ****        30.7500  14.5000  57.7500 Du        
   3845 ****        30.7500  14.5000  58.0000 Du        
   3846 ****        30.7500  14.5000  58.2500 Du        
   3847 ****        30.7500  14.5000  58.5000 Du        
   3848 ****        30.7500  14.7500  57.5000 Du        
   3849 ****        30.7500  14.7500  57.7500 Du        
   3850 ****        30.7500  14.7500  58.0000 Du        
   3851 ****        30.7500  14.7500  58.2500 Du        
   3852 ****        30.7500  14.7500  58.5000 Du        
   3853 ****        30.7500  14.7500  58.7500 Du        
   3854 ****        30.7500  15.0000  57.7500 Du        
   3855 ****        30.7500  15.0000  58.0000 Du        
   3856 ****        30.7500  15.0000  58.2500 Du        
   3857 ****        30.7500  15.0000  58.5000 Du        
   3858 ****        30.7500  15.0000  58.7500 Du        
   3859 ****        30.7500  15.2500  57.7500 Du        
   3860 ****        30.7500  15.2500  58.0000 Du        
   3861 ****        30.7500  15.2500  58.2500 Du        
   3862 ****        30.7500  15.2500  58.5000 Du        
   3863 ****        30.7500  15.2500  58.7500 Du        
   3864 ****        30.7500  15.5000  58.0000 Du        
   3865 ****        30.7500  15.5000  58.2500 Du        
   3866 ****        30.7500  15.5000  58.5000 Du        
   3867 ****        30.7500  15.5000  58.7500 Du        
   3868 ****        30.7500  15.7500  58.0000 Du        
   3869 ****        30.7500  15.7500  58.2500 Du        
   3870 ****        30.7500  15.7500  58.5000 Du        
   3871 ****        30.7500  15.7500  58.7500 Du        
   3872 ****        30.7500  16.0000  58.0000 Du        
   3873 ****        30.7500  16.0000  58.2500 Du        
   3874 ****        30.7500  16.0000  58.5000 Du        
   3875 ****        30.7500  16.0000  58.7500 Du        
   3876 ****        30.7500  16.2500  58.2500 Du        
   3877 ****        30.7500  16.2500  58.5000 Du        
   3878 ****        30.7500  16.2500  58.7500 Du        
   3879 ****        30.7500  16.5000  58.2500 Du        
   3880 ****        30.7500  16.5000  58.5000 Du        
   3881 ****        30.7500  16.5000  58.7500 Du        
   3882 ****        30.7500  16.7500  58.2500 Du        
   3883 ****        30.7500  16.7500  58.5000 Du        
   3884 ****        30.7500  16.7500  58.7500 Du        
   3885 ****        30.7500  17.0000  58.2500 Du        
   3886 ****        30.7500  17.0000  58.5000 Du        
   3887 ****        30.7500  17.0000  58.7500 Du        
   3888 ****        30.7500  17.0000  59.0000 Du        
   3889 ****        30.7500  17.2500  58.0000 Du        
   3890 ****        30.7500  17.2500  58.2500 Du        
   3891 ****        30.7500  17.2500  58.5000 Du        
   3892 ****        30.7500  17.2500  58.7500 Du        
   3893 ****        30.7500  17.2500  59.0000 Du        
   3894 ****        30.7500  17.5000  58.0000 Du        
   3895 ****        30.7500  17.5000  58.2500 Du        
   3896 ****        30.7500  17.5000  58.5000 Du        
   3897 ****        30.7500  17.5000  58.7500 Du        
   3898 ****        30.7500  17.5000  59.0000 Du        
   3899 ****        30.7500  17.5000  59.2500 Du        
   3900 ****        30.7500  17.7500  58.0000 Du        
   3901 ****        30.7500  17.7500  58.2500 Du        
   3902 ****        30.7500  17.7500  58.5000 Du        
   3903 ****        30.7500  17.7500  58.7500 Du        
   3904 ****        30.7500  17.7500  59.0000 Du        
   3905 ****        30.7500  17.7500  59.2500 Du        
   3906 ****        30.7500  17.7500  59.5000 Du        
   3907 ****        30.7500  18.0000  58.0000 Du        
   3908 ****        30.7500  18.0000  58.2500 Du        
   3909 ****        30.7500  18.0000  58.5000 Du        
   3910 ****        30.7500  18.0000  58.7500 Du        
   3911 ****        30.7500  18.0000  59.0000 Du        
   3912 ****        30.7500  18.0000  59.2500 Du        
   3913 ****        30.7500  18.0000  59.5000 Du        
   3914 ****        30.7500  18.0000  59.7500 Du        
   3915 ****        30.7500  18.0000  60.0000 Du        
   3916 ****        30.7500  18.2500  58.0000 Du        
   3917 ****        30.7500  18.2500  58.2500 Du        
   3918 ****        30.7500  18.2500  58.5000 Du        
   3919 ****        30.7500  18.2500  58.7500 Du        
   3920 ****        30.7500  18.2500  59.0000 Du        
   3921 ****        30.7500  18.2500  59.2500 Du        
   3922 ****        30.7500  18.2500  59.5000 Du        
   3923 ****        30.7500  18.2500  59.7500 Du        
   3924 ****        30.7500  18.2500  60.0000 Du        
   3925 ****        30.7500  18.2500  60.2500 Du        
   3926 ****        30.7500  18.5000  58.0000 Du        
   3927 ****        30.7500  18.5000  58.2500 Du        
   3928 ****        30.7500  18.5000  58.5000 Du        
   3929 ****        30.7500  18.5000  58.7500 Du        
   3930 ****        30.7500  18.5000  59.0000 Du        
   3931 ****        30.7500  18.5000  59.2500 Du        
   3932 ****        30.7500  18.5000  59.5000 Du        
   3933 ****        30.7500  18.5000  59.7500 Du        
   3934 ****        30.7500  18.5000  60.0000 Du        
   3935 ****        30.7500  18.5000  60.2500 Du        
   3936 ****        30.7500  18.7500  58.0000 Du        
   3937 ****        30.7500  18.7500  58.2500 Du        
   3938 ****        30.7500  18.7500  58.5000 Du        
   3939 ****        30.7500  18.7500  58.7500 Du        
   3940 ****        30.7500  18.7500  59.0000 Du        
   3941 ****        30.7500  18.7500  59.2500 Du        
   3942 ****        30.7500  18.7500  59.5000 Du        
   3943 ****        30.7500  18.7500  59.7500 Du        
   3944 ****        30.7500  18.7500  60.0000 Du        
   3945 ****        30.7500  18.7500  60.2500 Du        
   3946 ****        30.7500  19.0000  58.0000 Du        
   3947 ****        30.7500  19.0000  58.2500 Du        
   3948 ****        30.7500  19.0000  58.5000 Du        
   3949 ****        30.7500  19.0000  58.7500 Du        
   3950 ****        30.7500  19.0000  59.0000 Du        
   3951 ****        30.7500  19.0000  59.2500 Du        
   3952 ****        30.7500  19.0000  59.5000 Du        
   3953 ****        30.7500  19.0000  59.7500 Du        
   3954 ****        30.7500  19.0000  60.0000 Du        
   3955 ****        30.7500  19.0000  60.2500 Du        
   3956 ****        30.7500  19.2500  58.0000 Du        
   3957 ****        30.7500  19.2500  58.2500 Du        
   3958 ****        30.7500  19.2500  58.5000 Du        
   3959 ****        30.7500  19.2500  58.7500 Du        
   3960 ****        30.7500  19.2500  59.0000 Du        
   3961 ****        30.7500  19.2500  59.2500 Du        
   3962 ****        30.7500  19.2500  59.5000 Du        
   3963 ****        30.7500  19.2500  59.7500 Du        
   3964 ****        30.7500  19.2500  60.0000 Du        
   3965 ****        30.7500  19.2500  60.2500 Du        
   3966 ****        30.7500  19.5000  58.0000 Du        
   3967 ****        30.7500  19.5000  58.2500 Du        
   3968 ****        30.7500  19.5000  58.5000 Du        
   3969 ****        30.7500  19.5000  58.7500 Du        
   3970 ****        30.7500  19.5000  59.0000 Du        
   3971 ****        30.7500  19.5000  59.2500 Du        
   3972 ****        30.7500  19.5000  59.5000 Du        
   3973 ****        30.7500  19.5000  59.7500 Du        
   3974 ****        30.7500  19.5000  60.0000 Du        
   3975 ****        30.7500  19.5000  60.2500 Du        
   3976 ****        30.7500  19.7500  57.7500 Du        
   3977 ****        30.7500  19.7500  58.0000 Du        
   3978 ****        30.7500  19.7500  58.2500 Du        
   3979 ****        30.7500  19.7500  58.5000 Du        
   3980 ****        30.7500  19.7500  58.7500 Du        
   3981 ****        30.7500  19.7500  59.0000 Du        
   3982 ****        30.7500  19.7500  59.2500 Du        
   3983 ****        30.7500  19.7500  59.5000 Du        
   3984 ****        30.7500  19.7500  59.7500 Du        
   3985 ****        30.7500  19.7500  60.0000 Du        
   3986 ****        30.7500  19.7500  60.2500 Du        
   3987 ****        30.7500  20.0000  57.7500 Du        
   3988 ****        30.7500  20.0000  58.0000 Du        
   3989 ****        30.7500  20.0000  58.2500 Du        
   3990 ****        30.7500  20.0000  58.5000 Du        
   3991 ****        30.7500  20.0000  58.7500 Du        
   3992 ****        30.7500  20.0000  59.0000 Du        
   3993 ****        30.7500  20.0000  59.2500 Du        
   3994 ****        30.7500  20.0000  59.5000 Du        
   3995 ****        30.7500  20.0000  59.7500 Du        
   3996 ****        30.7500  20.0000  60.0000 Du        
   3997 ****        30.7500  20.0000  60.2500 Du        
   3998 ****        30.7500  20.2500  57.7500 Du        
   3999 ****        30.7500  20.2500  58.0000 Du        
   4000 ****        30.7500  20.2500  58.2500 Du        
   4001 ****        30.7500  20.2500  58.5000 Du        
   4002 ****        30.7500  20.2500  58.7500 Du        
   4003 ****        30.7500  20.2500  59.0000 Du        
   4004 ****        30.7500  20.2500  59.2500 Du        
   4005 ****        30.7500  20.2500  59.5000 Du        
   4006 ****        30.7500  20.2500  59.7500 Du        
   4007 ****        30.7500  20.2500  60.0000 Du        
   4008 ****        30.7500  20.5000  58.0000 Du        
   4009 ****        30.7500  20.5000  58.2500 Du        
   4010 ****        30.7500  20.5000  58.5000 Du        
   4011 ****        30.7500  20.5000  58.7500 Du        
   4012 ****        30.7500  20.5000  59.0000 Du        
   4013 ****        30.7500  20.5000  59.2500 Du        
   4014 ****        30.7500  20.5000  59.5000 Du        
   4015 ****        30.7500  20.5000  59.7500 Du        
   4016 ****        30.7500  20.5000  60.0000 Du        
   4017 ****        30.7500  20.7500  58.0000 Du        
   4018 ****        30.7500  20.7500  58.2500 Du        
   4019 ****        30.7500  20.7500  58.5000 Du        
   4020 ****        30.7500  20.7500  58.7500 Du        
   4021 ****        30.7500  20.7500  59.0000 Du        
   4022 ****        30.7500  20.7500  59.2500 Du        
   4023 ****        30.7500  20.7500  59.5000 Du        
   4024 ****        30.7500  20.7500  59.7500 Du        
   4025 ****        30.7500  20.7500  60.0000 Du        
   4026 ****        30.7500  21.0000  58.2500 Du        
   4027 ****        30.7500  21.0000  58.5000 Du        
   4028 ****        30.7500  21.0000  58.7500 Du        
   4029 ****        30.7500  21.0000  59.0000 Du        
   4030 ****        30.7500  21.0000  59.2500 Du        
   4031 ****        30.7500  21.0000  59.5000 Du        
   4032 ****        30.7500  21.0000  59.7500 Du        
   4033 ****        30.7500  21.0000  60.0000 Du        
   4034 ****        30.7500  21.2500  58.2500 Du        
   4035 ****        30.7500  21.2500  58.5000 Du        
   4036 ****        30.7500  21.2500  58.7500 Du        
   4037 ****        30.7500  21.2500  59.0000 Du        
   4038 ****        30.7500  21.2500  59.2500 Du        
   4039 ****        30.7500  21.2500  59.5000 Du        
   4040 ****        30.7500  21.2500  59.7500 Du        
   4041 ****        30.7500  21.2500  60.0000 Du        
   4042 ****        30.7500  21.5000  58.5000 Du        
   4043 ****        30.7500  21.5000  58.7500 Du        
   4044 ****        30.7500  21.5000  59.0000 Du        
   4045 ****        30.7500  21.5000  59.2500 Du        
   4046 ****        30.7500  21.5000  59.5000 Du        
   4047 ****        30.7500  21.5000  59.7500 Du        
   4048 ****        30.7500  21.7500  58.7500 Du        
   4049 ****        30.7500  21.7500  59.0000 Du        
   4050 ****        30.7500  21.7500  59.2500 Du        
   4051 ****        30.7500  21.7500  59.5000 Du        
   4052 ****        30.7500  21.7500  59.7500 Du        
   4053 ****        30.7500  22.0000  58.7500 Du        
   4054 ****        30.7500  22.0000  59.0000 Du        
   4055 ****        30.7500  22.0000  59.2500 Du        
   4056 ****        30.7500  22.0000  59.5000 Du        
   4057 ****        30.7500  22.0000  59.7500 Du        
   4058 ****        30.7500  22.2500  58.7500 Du        
   4059 ****        30.7500  22.2500  59.0000 Du        
   4060 ****        30.7500  22.2500  59.2500 Du        
   4061 ****        30.7500  22.2500  59.5000 Du        
   4062 ****        30.7500  22.2500  59.7500 Du        
   4063 ****        30.7500  22.5000  58.7500 Du        
   4064 ****        30.7500  22.5000  59.0000 Du        
   4065 ****        30.7500  22.5000  59.2500 Du        
   4066 ****        30.7500  22.5000  59.5000 Du        
   4067 ****        30.7500  22.5000  59.7500 Du        
   4068 ****        30.7500  22.7500  58.7500 Du        
   4069 ****        30.7500  22.7500  59.0000 Du        
   4070 ****        30.7500  22.7500  59.2500 Du        
   4071 ****        30.7500  22.7500  59.5000 Du        
   4072 ****        30.7500  22.7500  59.7500 Du        
   4073 ****        30.7500  23.0000  58.7500 Du        
   4074 ****        30.7500  23.0000  59.0000 Du        
   4075 ****        30.7500  23.0000  59.2500 Du        
   4076 ****        30.7500  23.0000  59.5000 Du        
   4077 ****        30.7500  23.0000  59.7500 Du        
   4078 ****        30.7500  23.0000  60.0000 Du        
   4079 ****        30.7500  23.2500  58.7500 Du        
   4080 ****        30.7500  23.2500  59.0000 Du        
   4081 ****        30.7500  23.2500  59.2500 Du        
   4082 ****        30.7500  23.2500  59.5000 Du        
   4083 ****        30.7500  23.2500  59.7500 Du        
   4084 ****        30.7500  23.2500  60.0000 Du        
   4085 ****        30.7500  23.5000  58.7500 Du        
   4086 ****        30.7500  23.5000  59.0000 Du        
   4087 ****        30.7500  23.5000  59.2500 Du        
   4088 ****        30.7500  23.5000  59.5000 Du        
   4089 ****        30.7500  23.5000  59.7500 Du        
   4090 ****        30.7500  23.7500  58.7500 Du        
   4091 ****        30.7500  23.7500  59.0000 Du        
   4092 ****        30.7500  23.7500  59.2500 Du        
   4093 ****        30.7500  23.7500  59.5000 Du        
   4094 ****        30.7500  23.7500  59.7500 Du        
   4095 ****        30.7500  23.7500  60.0000 Du        
   4096 ****        30.7500  24.0000  59.0000 Du        
   4097 ****        30.7500  24.0000  59.2500 Du        
   4098 ****        30.7500  24.0000  59.5000 Du        
   4099 ****        30.7500  24.0000  59.7500 Du        
   4100 ****        30.7500  24.0000  60.0000 Du        
   4101 ****        31.0000  12.5000  56.7500 Du        
   4102 ****        31.0000  12.5000  57.0000 Du        
   4103 ****        31.0000  12.7500  56.5000 Du        
   4104 ****        31.0000  12.7500  56.7500 Du        
   4105 ****        31.0000  12.7500  57.0000 Du        
   4106 ****        31.0000  12.7500  57.2500 Du        
   4107 ****        31.0000  12.7500  57.5000 Du        
   4108 ****        31.0000  13.0000  56.2500 Du        
   4109 ****        31.0000  13.0000  56.5000 Du        
   4110 ****        31.0000  13.0000  56.7500 Du        
   4111 ****        31.0000  13.0000  57.0000 Du        
   4112 ****        31.0000  13.0000  57.2500 Du        
   4113 ****        31.0000  13.0000  57.5000 Du        
   4114 ****        31.0000  13.0000  57.7500 Du        
   4115 ****        31.0000  13.2500  56.5000 Du        
   4116 ****        31.0000  13.2500  56.7500 Du        
   4117 ****        31.0000  13.2500  57.0000 Du        
   4118 ****        31.0000  13.2500  57.2500 Du        
   4119 ****        31.0000  13.2500  57.5000 Du        
   4120 ****        31.0000  13.2500  57.7500 Du        
   4121 ****        31.0000  13.2500  58.0000 Du        
   4122 ****        31.0000  13.5000  56.5000 Du        
   4123 ****        31.0000  13.5000  56.7500 Du        
   4124 ****        31.0000  13.5000  57.0000 Du        
   4125 ****        31.0000  13.5000  57.2500 Du        
   4126 ****        31.0000  13.5000  57.5000 Du        
   4127 ****        31.0000  13.5000  57.7500 Du        
   4128 ****        31.0000  13.5000  58.0000 Du        
   4129 ****        31.0000  13.7500  56.7500 Du        
   4130 ****        31.0000  13.7500  57.0000 Du        
   4131 ****        31.0000  13.7500  57.2500 Du        
   4132 ****        31.0000  13.7500  57.5000 Du        
   4133 ****        31.0000  13.7500  57.7500 Du        
   4134 ****        31.0000  13.7500  58.0000 Du        
   4135 ****        31.0000  13.7500  58.2500 Du        
   4136 ****        31.0000  14.0000  57.0000 Du        
   4137 ****        31.0000  14.0000  57.2500 Du        
   4138 ****        31.0000  14.0000  57.5000 Du        
   4139 ****        31.0000  14.0000  57.7500 Du        
   4140 ****        31.0000  14.0000  58.0000 Du        
   4141 ****        31.0000  14.0000  58.2500 Du        
   4142 ****        31.0000  14.2500  57.2500 Du        
   4143 ****        31.0000  14.2500  57.5000 Du        
   4144 ****        31.0000  14.2500  57.7500 Du        
   4145 ****        31.0000  14.2500  58.0000 Du        
   4146 ****        31.0000  14.2500  58.2500 Du        
   4147 ****        31.0000  14.2500  58.5000 Du        
   4148 ****        31.0000  14.5000  57.5000 Du        
   4149 ****        31.0000  14.5000  57.7500 Du        
   4150 ****        31.0000  14.5000  58.0000 Du        
   4151 ****        31.0000  14.5000  58.2500 Du        
   4152 ****        31.0000  14.5000  58.5000 Du        
   4153 ****        31.0000  14.7500  57.5000 Du        
   4154 ****        31.0000  14.7500  57.7500 Du        
   4155 ****        31.0000  14.7500  58.0000 Du        
   4156 ****        31.0000  14.7500  58.2500 Du        
   4157 ****        31.0000  14.7500  58.5000 Du        
   4158 ****        31.0000  14.7500  58.7500 Du        
   4159 ****        31.0000  15.0000  57.7500 Du        
   4160 ****        31.0000  15.0000  58.0000 Du        
   4161 ****        31.0000  15.0000  58.2500 Du        
   4162 ****        31.0000  15.0000  58.5000 Du        
   4163 ****        31.0000  15.2500  57.7500 Du        
   4164 ****        31.0000  15.2500  58.0000 Du        
   4165 ****        31.0000  15.2500  58.2500 Du        
   4166 ****        31.0000  15.2500  58.5000 Du        
   4167 ****        31.0000  15.5000  57.7500 Du        
   4168 ****        31.0000  15.5000  58.0000 Du        
   4169 ****        31.0000  15.5000  58.2500 Du        
   4170 ****        31.0000  15.5000  58.5000 Du        
   4171 ****        31.0000  15.7500  58.0000 Du        
   4172 ****        31.0000  15.7500  58.2500 Du        
   4173 ****        31.0000  15.7500  58.5000 Du        
   4174 ****        31.0000  16.0000  58.0000 Du        
   4175 ****        31.0000  16.0000  58.2500 Du        
   4176 ****        31.0000  16.0000  58.5000 Du        
   4177 ****        31.0000  16.2500  58.0000 Du        
   4178 ****        31.0000  16.2500  58.2500 Du        
   4179 ****        31.0000  16.2500  58.5000 Du        
   4180 ****        31.0000  16.5000  58.0000 Du        
   4181 ****        31.0000  16.5000  58.2500 Du        
   4182 ****        31.0000  16.5000  58.5000 Du        
   4183 ****        31.0000  16.7500  58.0000 Du        
   4184 ****        31.0000  16.7500  58.2500 Du        
   4185 ****        31.0000  16.7500  58.5000 Du        
   4186 ****        31.0000  17.0000  58.0000 Du        
   4187 ****        31.0000  17.0000  58.2500 Du        
   4188 ****        31.0000  17.0000  58.5000 Du        
   4189 ****        31.0000  17.0000  58.7500 Du        
   4190 ****        31.0000  17.2500  58.0000 Du        
   4191 ****        31.0000  17.2500  58.2500 Du        
   4192 ****        31.0000  17.2500  58.5000 Du        
   4193 ****        31.0000  17.2500  58.7500 Du        
   4194 ****        31.0000  17.5000  58.0000 Du        
   4195 ****        31.0000  17.5000  58.2500 Du        
   4196 ****        31.0000  17.5000  58.5000 Du        
   4197 ****        31.0000  17.5000  58.7500 Du        
   4198 ****        31.0000  17.5000  59.0000 Du        
   4199 ****        31.0000  17.7500  58.0000 Du        
   4200 ****        31.0000  17.7500  58.2500 Du        
   4201 ****        31.0000  17.7500  58.5000 Du        
   4202 ****        31.0000  17.7500  58.7500 Du        
   4203 ****        31.0000  17.7500  59.0000 Du        
   4204 ****        31.0000  17.7500  59.2500 Du        
   4205 ****        31.0000  18.0000  58.0000 Du        
   4206 ****        31.0000  18.0000  58.2500 Du        
   4207 ****        31.0000  18.0000  58.5000 Du        
   4208 ****        31.0000  18.0000  58.7500 Du        
   4209 ****        31.0000  18.0000  59.0000 Du        
   4210 ****        31.0000  18.0000  59.2500 Du        
   4211 ****        31.0000  18.0000  59.5000 Du        
   4212 ****        31.0000  18.2500  58.0000 Du        
   4213 ****        31.0000  18.2500  58.2500 Du        
   4214 ****        31.0000  18.2500  58.5000 Du        
   4215 ****        31.0000  18.2500  58.7500 Du        
   4216 ****        31.0000  18.2500  59.0000 Du        
   4217 ****        31.0000  18.2500  59.2500 Du        
   4218 ****        31.0000  18.2500  59.5000 Du        
   4219 ****        31.0000  18.2500  59.7500 Du        
   4220 ****        31.0000  18.2500  60.0000 Du        
   4221 ****        31.0000  18.5000  58.0000 Du        
   4222 ****        31.0000  18.5000  58.2500 Du        
   4223 ****        31.0000  18.5000  58.5000 Du        
   4224 ****        31.0000  18.5000  58.7500 Du        
   4225 ****        31.0000  18.5000  59.0000 Du        
   4226 ****        31.0000  18.5000  59.2500 Du        
   4227 ****        31.0000  18.5000  59.5000 Du        
   4228 ****        31.0000  18.5000  59.7500 Du        
   4229 ****        31.0000  18.5000  60.0000 Du        
   4230 ****        31.0000  18.7500  58.0000 Du        
   4231 ****        31.0000  18.7500  58.2500 Du        
   4232 ****        31.0000  18.7500  58.5000 Du        
   4233 ****        31.0000  18.7500  58.7500 Du        
   4234 ****        31.0000  18.7500  59.0000 Du        
   4235 ****        31.0000  18.7500  59.2500 Du        
   4236 ****        31.0000  18.7500  59.5000 Du        
   4237 ****        31.0000  18.7500  59.7500 Du        
   4238 ****        31.0000  18.7500  60.0000 Du        
   4239 ****        31.0000  18.7500  60.2500 Du        
   4240 ****        31.0000  19.0000  57.7500 Du        
   4241 ****        31.0000  19.0000  58.0000 Du        
   4242 ****        31.0000  19.0000  58.2500 Du        
   4243 ****        31.0000  19.0000  58.5000 Du        
   4244 ****        31.0000  19.0000  58.7500 Du        
   4245 ****        31.0000  19.0000  59.0000 Du        
   4246 ****        31.0000  19.0000  59.2500 Du        
   4247 ****        31.0000  19.0000  59.5000 Du        
   4248 ****        31.0000  19.0000  59.7500 Du        
   4249 ****        31.0000  19.0000  60.0000 Du        
   4250 ****        31.0000  19.0000  60.2500 Du        
   4251 ****        31.0000  19.2500  57.7500 Du        
   4252 ****        31.0000  19.2500  58.0000 Du        
   4253 ****        31.0000  19.2500  58.2500 Du        
   4254 ****        31.0000  19.2500  58.5000 Du        
   4255 ****        31.0000  19.2500  58.7500 Du        
   4256 ****        31.0000  19.2500  59.0000 Du        
   4257 ****        31.0000  19.2500  59.2500 Du        
   4258 ****        31.0000  19.2500  59.5000 Du        
   4259 ****        31.0000  19.2500  59.7500 Du        
   4260 ****        31.0000  19.2500  60.0000 Du        
   4261 ****        31.0000  19.2500  60.2500 Du        
   4262 ****        31.0000  19.5000  57.7500 Du        
   4263 ****        31.0000  19.5000  58.0000 Du        
   4264 ****        31.0000  19.5000  58.2500 Du        
   4265 ****        31.0000  19.5000  58.5000 Du        
   4266 ****        31.0000  19.5000  58.7500 Du        
   4267 ****        31.0000  19.5000  59.0000 Du        
   4268 ****        31.0000  19.5000  59.2500 Du        
   4269 ****        31.0000  19.5000  59.5000 Du        
   4270 ****        31.0000  19.5000  59.7500 Du        
   4271 ****        31.0000  19.5000  60.0000 Du        
   4272 ****        31.0000  19.7500  57.7500 Du        
   4273 ****        31.0000  19.7500  58.0000 Du        
   4274 ****        31.0000  19.7500  58.2500 Du        
   4275 ****        31.0000  19.7500  58.5000 Du        
   4276 ****        31.0000  19.7500  58.7500 Du        
   4277 ****        31.0000  19.7500  59.0000 Du        
   4278 ****        31.0000  19.7500  59.2500 Du        
   4279 ****        31.0000  19.7500  59.5000 Du        
   4280 ****        31.0000  19.7500  59.7500 Du        
   4281 ****        31.0000  19.7500  60.0000 Du        
   4282 ****        31.0000  20.0000  57.5000 Du        
   4283 ****        31.0000  20.0000  57.7500 Du        
   4284 ****        31.0000  20.0000  58.0000 Du        
   4285 ****        31.0000  20.0000  58.2500 Du        
   4286 ****        31.0000  20.0000  58.5000 Du        
   4287 ****        31.0000  20.0000  58.7500 Du        
   4288 ****        31.0000  20.0000  59.0000 Du        
   4289 ****        31.0000  20.0000  59.2500 Du        
   4290 ****        31.0000  20.0000  59.5000 Du        
   4291 ****        31.0000  20.0000  59.7500 Du        
   4292 ****        31.0000  20.0000  60.0000 Du        
   4293 ****        31.0000  20.2500  57.7500 Du        
   4294 ****        31.0000  20.2500  58.0000 Du        
   4295 ****        31.0000  20.2500  58.2500 Du        
   4296 ****        31.0000  20.2500  58.5000 Du        
   4297 ****        31.0000  20.2500  58.7500 Du        
   4298 ****        31.0000  20.2500  59.0000 Du        
   4299 ****        31.0000  20.2500  59.2500 Du        
   4300 ****        31.0000  20.2500  59.5000 Du        
   4301 ****        31.0000  20.2500  59.7500 Du        
   4302 ****        31.0000  20.2500  60.0000 Du        
   4303 ****        31.0000  20.5000  57.7500 Du        
   4304 ****        31.0000  20.5000  58.0000 Du        
   4305 ****        31.0000  20.5000  58.2500 Du        
   4306 ****        31.0000  20.5000  58.5000 Du        
   4307 ****        31.0000  20.5000  58.7500 Du        
   4308 ****        31.0000  20.5000  59.0000 Du        
   4309 ****        31.0000  20.5000  59.2500 Du        
   4310 ****        31.0000  20.5000  59.5000 Du        
   4311 ****        31.0000  20.5000  59.7500 Du        
   4312 ****        31.0000  20.5000  60.0000 Du        
   4313 ****        31.0000  20.7500  58.0000 Du        
   4314 ****        31.0000  20.7500  58.2500 Du        
   4315 ****        31.0000  20.7500  58.5000 Du        
   4316 ****        31.0000  20.7500  58.7500 Du        
   4317 ****        31.0000  20.7500  59.0000 Du        
   4318 ****        31.0000  20.7500  59.2500 Du        
   4319 ****        31.0000  20.7500  59.5000 Du        
   4320 ****        31.0000  20.7500  59.7500 Du        
   4321 ****        31.0000  20.7500  60.0000 Du        
   4322 ****        31.0000  21.0000  58.0000 Du        
   4323 ****        31.0000  21.0000  58.2500 Du        
   4324 ****        31.0000  21.0000  58.5000 Du        
   4325 ****        31.0000  21.0000  58.7500 Du        
   4326 ****        31.0000  21.0000  59.0000 Du        
   4327 ****        31.0000  21.0000  59.2500 Du        
   4328 ****        31.0000  21.0000  59.5000 Du        
   4329 ****        31.0000  21.0000  59.7500 Du        
   4330 ****        31.0000  21.2500  58.2500 Du        
   4331 ****        31.0000  21.2500  58.5000 Du        
   4332 ****        31.0000  21.2500  58.7500 Du        
   4333 ****        31.0000  21.2500  59.0000 Du        
   4334 ****        31.0000  21.2500  59.2500 Du        
   4335 ****        31.0000  21.2500  59.5000 Du        
   4336 ****        31.0000  21.2500  59.7500 Du        
   4337 ****        31.0000  21.5000  58.2500 Du        
   4338 ****        31.0000  21.5000  58.5000 Du        
   4339 ****        31.0000  21.5000  58.7500 Du        
   4340 ****        31.0000  21.5000  59.0000 Du        
   4341 ****        31.0000  21.5000  59.2500 Du        
   4342 ****        31.0000  21.5000  59.5000 Du        
   4343 ****        31.0000  21.5000  59.7500 Du        
   4344 ****        31.0000  21.7500  58.5000 Du        
   4345 ****        31.0000  21.7500  58.7500 Du        
   4346 ****        31.0000  21.7500  59.0000 Du        
   4347 ****        31.0000  21.7500  59.2500 Du        
   4348 ****        31.0000  21.7500  59.5000 Du        
   4349 ****        31.0000  21.7500  59.7500 Du        
   4350 ****        31.0000  22.0000  58.7500 Du        
   4351 ****        31.0000  22.0000  59.0000 Du        
   4352 ****        31.0000  22.0000  59.2500 Du        
   4353 ****        31.0000  22.0000  59.5000 Du        
   4354 ****        31.0000  22.0000  59.7500 Du        
   4355 ****        31.0000  22.2500  58.7500 Du        
   4356 ****        31.0000  22.2500  59.0000 Du        
   4357 ****        31.0000  22.2500  59.2500 Du        
   4358 ****        31.0000  22.2500  59.5000 Du        
   4359 ****        31.0000  22.2500  59.7500 Du        
   4360 ****        31.0000  22.5000  58.7500 Du        
   4361 ****        31.0000  22.5000  59.0000 Du        
   4362 ****        31.0000  22.5000  59.2500 Du        
   4363 ****        31.0000  22.5000  59.5000 Du        
   4364 ****        31.0000  22.5000  59.7500 Du        
   4365 ****        31.0000  22.7500  58.7500 Du        
   4366 ****        31.0000  22.7500  59.0000 Du        
   4367 ****        31.0000  22.7500  59.2500 Du        
   4368 ****        31.0000  22.7500  59.5000 Du        
   4369 ****        31.0000  22.7500  59.7500 Du        
   4370 ****        31.0000  23.0000  58.7500 Du        
   4371 ****        31.0000  23.0000  59.0000 Du        
   4372 ****        31.0000  23.0000  59.2500 Du        
   4373 ****        31.0000  23.0000  59.5000 Du        
   4374 ****        31.0000  23.0000  59.7500 Du        
   4375 ****        31.0000  23.2500  58.7500 Du        
   4376 ****        31.0000  23.2500  59.0000 Du        
   4377 ****        31.0000  23.2500  59.2500 Du        
   4378 ****        31.0000  23.2500  59.5000 Du        
   4379 ****        31.0000  23.2500  59.7500 Du        
   4380 ****        31.0000  23.5000  58.5000 Du        
   4381 ****        31.0000  23.5000  58.7500 Du        
   4382 ****        31.0000  23.5000  59.0000 Du        
   4383 ****        31.0000  23.5000  59.2500 Du        
   4384 ****        31.0000  23.5000  59.5000 Du        
   4385 ****        31.0000  23.5000  59.7500 Du        
   4386 ****        31.0000  23.7500  58.5000 Du        
   4387 ****        31.0000  23.7500  58.7500 Du        
   4388 ****        31.0000  23.7500  59.0000 Du        
   4389 ****        31.0000  23.7500  59.2500 Du        
   4390 ****        31.0000  23.7500  59.5000 Du        
   4391 ****        31.0000  23.7500  59.7500 Du        
   4392 ****        31.0000  23.7500  60.0000 Du        
   4393 ****        31.0000  24.0000  58.7500 Du        
   4394 ****        31.0000  24.0000  59.0000 Du        
   4395 ****        31.0000  24.0000  59.2500 Du        
   4396 ****        31.0000  24.0000  59.5000 Du        
   4397 ****        31.0000  24.0000  60.0000 Du        
   4398 ****        31.0000  24.2500  59.2500 Du        
   4399 ****        31.2500  12.5000  56.5000 Du        
   4400 ****        31.2500  12.5000  56.7500 Du        
   4401 ****        31.2500  12.5000  57.0000 Du        
   4402 ****        31.2500  12.7500  56.2500 Du        
   4403 ****        31.2500  12.7500  56.5000 Du        
   4404 ****        31.2500  12.7500  56.7500 Du        
   4405 ****        31.2500  12.7500  57.0000 Du        
   4406 ****        31.2500  12.7500  57.2500 Du        
   4407 ****        31.2500  12.7500  57.5000 Du        
   4408 ****        31.2500  13.0000  56.2500 Du        
   4409 ****        31.2500  13.0000  56.5000 Du        
   4410 ****        31.2500  13.0000  56.7500 Du        
   4411 ****        31.2500  13.0000  57.0000 Du        
   4412 ****        31.2500  13.0000  57.2500 Du        
   4413 ****        31.2500  13.0000  57.5000 Du        
   4414 ****        31.2500  13.0000  57.7500 Du        
   4415 ****        31.2500  13.0000  58.0000 Du        
   4416 ****        31.2500  13.2500  56.2500 Du        
   4417 ****        31.2500  13.2500  56.5000 Du        
   4418 ****        31.2500  13.2500  56.7500 Du        
   4419 ****        31.2500  13.2500  57.0000 Du        
   4420 ****        31.2500  13.2500  57.2500 Du        
   4421 ****        31.2500  13.2500  57.5000 Du        
   4422 ****        31.2500  13.2500  57.7500 Du        
   4423 ****        31.2500  13.2500  58.0000 Du        
   4424 ****        31.2500  13.2500  58.2500 Du        
   4425 ****        31.2500  13.5000  56.5000 Du        
   4426 ****        31.2500  13.5000  56.7500 Du        
   4427 ****        31.2500  13.5000  57.0000 Du        
   4428 ****        31.2500  13.5000  57.2500 Du        
   4429 ****        31.2500  13.5000  57.5000 Du        
   4430 ****        31.2500  13.5000  57.7500 Du        
   4431 ****        31.2500  13.5000  58.0000 Du        
   4432 ****        31.2500  13.5000  58.2500 Du        
   4433 ****        31.2500  13.7500  56.7500 Du        
   4434 ****        31.2500  13.7500  57.0000 Du        
   4435 ****        31.2500  13.7500  57.2500 Du        
   4436 ****        31.2500  13.7500  57.5000 Du        
   4437 ****        31.2500  13.7500  57.7500 Du        
   4438 ****        31.2500  13.7500  58.0000 Du        
   4439 ****        31.2500  13.7500  58.2500 Du        
   4440 ****        31.2500  14.0000  57.0000 Du        
   4441 ****        31.2500  14.0000  57.2500 Du        
   4442 ****        31.2500  14.0000  57.5000 Du        
   4443 ****        31.2500  14.0000  57.7500 Du        
   4444 ****        31.2500  14.0000  58.0000 Du        
   4445 ****        31.2500  14.0000  58.2500 Du        
   4446 ****        31.2500  14.0000  58.5000 Du        
   4447 ****        31.2500  14.2500  57.2500 Du        
   4448 ****        31.2500  14.2500  57.5000 Du        
   4449 ****        31.2500  14.2500  57.7500 Du        
   4450 ****        31.2500  14.2500  58.0000 Du        
   4451 ****        31.2500  14.2500  58.2500 Du        
   4452 ****        31.2500  14.2500  58.5000 Du        
   4453 ****        31.2500  14.5000  57.2500 Du        
   4454 ****        31.2500  14.5000  57.5000 Du        
   4455 ****        31.2500  14.5000  57.7500 Du        
   4456 ****        31.2500  14.5000  58.0000 Du        
   4457 ****        31.2500  14.5000  58.2500 Du        
   4458 ****        31.2500  14.5000  58.5000 Du        
   4459 ****        31.2500  14.7500  57.5000 Du        
   4460 ****        31.2500  14.7500  57.7500 Du        
   4461 ****        31.2500  14.7500  58.0000 Du        
   4462 ****        31.2500  14.7500  58.2500 Du        
   4463 ****        31.2500  14.7500  58.5000 Du        
   4464 ****        31.2500  15.0000  57.7500 Du        
   4465 ****        31.2500  15.0000  58.0000 Du        
   4466 ****        31.2500  15.0000  58.2500 Du        
   4467 ****        31.2500  15.0000  58.5000 Du        
   4468 ****        31.2500  15.2500  57.7500 Du        
   4469 ****        31.2500  15.2500  58.0000 Du        
   4470 ****        31.2500  15.2500  58.2500 Du        
   4471 ****        31.2500  15.5000  57.7500 Du        
   4472 ****        31.2500  15.5000  58.0000 Du        
   4473 ****        31.2500  15.5000  58.2500 Du        
   4474 ****        31.2500  15.7500  57.7500 Du        
   4475 ****        31.2500  15.7500  58.0000 Du        
   4476 ****        31.2500  15.7500  58.2500 Du        
   4477 ****        31.2500  16.0000  58.0000 Du        
   4478 ****        31.2500  16.0000  58.2500 Du        
   4479 ****        31.2500  16.2500  58.0000 Du        
   4480 ****        31.2500  16.2500  58.2500 Du        
   4481 ****        31.2500  16.5000  58.0000 Du        
   4482 ****        31.2500  16.5000  58.2500 Du        
   4483 ****        31.2500  16.7500  58.0000 Du        
   4484 ****        31.2500  16.7500  58.2500 Du        
   4485 ****        31.2500  16.7500  58.5000 Du        
   4486 ****        31.2500  17.0000  58.0000 Du        
   4487 ****        31.2500  17.0000  58.2500 Du        
   4488 ****        31.2500  17.0000  58.5000 Du        
   4489 ****        31.2500  17.2500  57.7500 Du        
   4490 ****        31.2500  17.2500  58.0000 Du        
   4491 ****        31.2500  17.2500  58.2500 Du        
   4492 ****        31.2500  17.2500  58.5000 Du        
   4493 ****        31.2500  17.2500  58.7500 Du        
   4494 ****        31.2500  17.5000  57.7500 Du        
   4495 ****        31.2500  17.5000  58.0000 Du        
   4496 ****        31.2500  17.5000  58.2500 Du        
   4497 ****        31.2500  17.5000  58.5000 Du        
   4498 ****        31.2500  17.5000  58.7500 Du        
   4499 ****        31.2500  17.7500  57.7500 Du        
   4500 ****        31.2500  17.7500  58.0000 Du        
   4501 ****        31.2500  17.7500  58.2500 Du        
   4502 ****        31.2500  17.7500  58.5000 Du        
   4503 ****        31.2500  17.7500  58.7500 Du        
   4504 ****        31.2500  17.7500  59.0000 Du        
   4505 ****        31.2500  18.0000  57.7500 Du        
   4506 ****        31.2500  18.0000  58.0000 Du        
   4507 ****        31.2500  18.0000  58.2500 Du        
   4508 ****        31.2500  18.0000  58.5000 Du        
   4509 ****        31.2500  18.0000  58.7500 Du        
   4510 ****        31.2500  18.0000  59.0000 Du        
   4511 ****        31.2500  18.0000  59.2500 Du        
   4512 ****        31.2500  18.2500  57.7500 Du        
   4513 ****        31.2500  18.2500  58.0000 Du        
   4514 ****        31.2500  18.2500  58.2500 Du        
   4515 ****        31.2500  18.2500  58.5000 Du        
   4516 ****        31.2500  18.2500  58.7500 Du        
   4517 ****        31.2500  18.2500  59.0000 Du        
   4518 ****        31.2500  18.2500  59.2500 Du        
   4519 ****        31.2500  18.2500  59.5000 Du        
   4520 ****        31.2500  18.2500  59.7500 Du        
   4521 ****        31.2500  18.5000  57.7500 Du        
   4522 ****        31.2500  18.5000  58.0000 Du        
   4523 ****        31.2500  18.5000  58.2500 Du        
   4524 ****        31.2500  18.5000  58.5000 Du        
   4525 ****        31.2500  18.5000  58.7500 Du        
   4526 ****        31.2500  18.5000  59.0000 Du        
   4527 ****        31.2500  18.5000  59.2500 Du        
   4528 ****        31.2500  18.5000  59.5000 Du        
   4529 ****        31.2500  18.5000  59.7500 Du        
   4530 ****        31.2500  18.5000  60.0000 Du        
   4531 ****        31.2500  18.7500  57.7500 Du        
   4532 ****        31.2500  18.7500  58.0000 Du        
   4533 ****        31.2500  18.7500  58.2500 Du        
   4534 ****        31.2500  18.7500  58.5000 Du        
   4535 ****        31.2500  18.7500  58.7500 Du        
   4536 ****        31.2500  18.7500  59.0000 Du        
   4537 ****        31.2500  18.7500  59.2500 Du        
   4538 ****        31.2500  18.7500  59.5000 Du        
   4539 ****        31.2500  18.7500  59.7500 Du        
   4540 ****        31.2500  18.7500  60.0000 Du        
   4541 ****        31.2500  19.0000  57.7500 Du        
   4542 ****        31.2500  19.0000  58.0000 Du        
   4543 ****        31.2500  19.0000  58.2500 Du        
   4544 ****        31.2500  19.0000  58.5000 Du        
   4545 ****        31.2500  19.0000  58.7500 Du        
   4546 ****        31.2500  19.0000  59.0000 Du        
   4547 ****        31.2500  19.0000  59.2500 Du        
   4548 ****        31.2500  19.0000  59.5000 Du        
   4549 ****        31.2500  19.0000  59.7500 Du        
   4550 ****        31.2500  19.0000  60.0000 Du        
   4551 ****        31.2500  19.2500  57.7500 Du        
   4552 ****        31.2500  19.2500  58.0000 Du        
   4553 ****        31.2500  19.2500  58.2500 Du        
   4554 ****        31.2500  19.2500  58.5000 Du        
   4555 ****        31.2500  19.2500  58.7500 Du        
   4556 ****        31.2500  19.2500  59.0000 Du        
   4557 ****        31.2500  19.2500  59.2500 Du        
   4558 ****        31.2500  19.2500  59.5000 Du        
   4559 ****        31.2500  19.2500  59.7500 Du        
   4560 ****        31.2500  19.2500  60.0000 Du        
   4561 ****        31.2500  19.5000  57.5000 Du        
   4562 ****        31.2500  19.5000  57.7500 Du        
   4563 ****        31.2500  19.5000  58.0000 Du        
   4564 ****        31.2500  19.5000  58.2500 Du        
   4565 ****        31.2500  19.5000  58.5000 Du        
   4566 ****        31.2500  19.5000  58.7500 Du        
   4567 ****        31.2500  19.5000  59.0000 Du        
   4568 ****        31.2500  19.5000  59.2500 Du        
   4569 ****        31.2500  19.5000  59.5000 Du        
   4570 ****        31.2500  19.5000  59.7500 Du        
   4571 ****        31.2500  19.5000  60.0000 Du        
   4572 ****        31.2500  19.7500  57.5000 Du        
   4573 ****        31.2500  19.7500  57.7500 Du        
   4574 ****        31.2500  19.7500  58.0000 Du        
   4575 ****        31.2500  19.7500  58.2500 Du        
   4576 ****        31.2500  19.7500  58.5000 Du        
   4577 ****        31.2500  19.7500  58.7500 Du        
   4578 ****        31.2500  19.7500  59.0000 Du        
   4579 ****        31.2500  19.7500  59.2500 Du        
   4580 ****        31.2500  19.7500  59.5000 Du        
   4581 ****        31.2500  19.7500  59.7500 Du        
   4582 ****        31.2500  19.7500  60.0000 Du        
   4583 ****        31.2500  20.0000  57.5000 Du        
   4584 ****        31.2500  20.0000  57.7500 Du        
   4585 ****        31.2500  20.0000  58.0000 Du        
   4586 ****        31.2500  20.0000  58.2500 Du        
   4587 ****        31.2500  20.0000  58.5000 Du        
   4588 ****        31.2500  20.0000  58.7500 Du        
   4589 ****        31.2500  20.0000  59.0000 Du        
   4590 ****        31.2500  20.0000  59.2500 Du        
   4591 ****        31.2500  20.0000  59.5000 Du        
   4592 ****        31.2500  20.0000  59.7500 Du        
   4593 ****        31.2500  20.0000  60.0000 Du        
   4594 ****        31.2500  20.2500  57.5000 Du        
   4595 ****        31.2500  20.2500  57.7500 Du        
   4596 ****        31.2500  20.2500  58.0000 Du        
   4597 ****        31.2500  20.2500  58.2500 Du        
   4598 ****        31.2500  20.2500  58.5000 Du        
   4599 ****        31.2500  20.2500  58.7500 Du        
   4600 ****        31.2500  20.2500  59.0000 Du        
   4601 ****        31.2500  20.2500  59.2500 Du        
   4602 ****        31.2500  20.2500  59.5000 Du        
   4603 ****        31.2500  20.2500  59.7500 Du        
   4604 ****        31.2500  20.5000  57.7500 Du        
   4605 ****        31.2500  20.5000  58.0000 Du        
   4606 ****        31.2500  20.5000  58.2500 Du        
   4607 ****        31.2500  20.5000  58.5000 Du        
   4608 ****        31.2500  20.5000  58.7500 Du        
   4609 ****        31.2500  20.5000  59.0000 Du        
   4610 ****        31.2500  20.5000  59.2500 Du        
   4611 ****        31.2500  20.5000  59.5000 Du        
   4612 ****        31.2500  20.5000  59.7500 Du        
   4613 ****        31.2500  20.7500  57.7500 Du        
   4614 ****        31.2500  20.7500  58.0000 Du        
   4615 ****        31.2500  20.7500  58.2500 Du        
   4616 ****        31.2500  20.7500  58.5000 Du        
   4617 ****        31.2500  20.7500  58.7500 Du        
   4618 ****        31.2500  20.7500  59.0000 Du        
   4619 ****        31.2500  20.7500  59.2500 Du        
   4620 ****        31.2500  20.7500  59.5000 Du        
   4621 ****        31.2500  20.7500  59.7500 Du        
   4622 ****        31.2500  21.0000  58.0000 Du        
   4623 ****        31.2500  21.0000  58.2500 Du        
   4624 ****        31.2500  21.0000  58.5000 Du        
   4625 ****        31.2500  21.0000  58.7500 Du        
   4626 ****        31.2500  21.0000  59.0000 Du        
   4627 ****        31.2500  21.0000  59.2500 Du        
   4628 ****        31.2500  21.0000  59.5000 Du        
   4629 ****        31.2500  21.2500  58.2500 Du        
   4630 ****        31.2500  21.2500  58.5000 Du        
   4631 ****        31.2500  21.2500  58.7500 Du        
   4632 ****        31.2500  21.2500  59.0000 Du        
   4633 ****        31.2500  21.2500  59.2500 Du        
   4634 ****        31.2500  21.2500  59.5000 Du        
   4635 ****        31.2500  21.5000  58.2500 Du        
   4636 ****        31.2500  21.5000  58.5000 Du        
   4637 ****        31.2500  21.5000  58.7500 Du        
   4638 ****        31.2500  21.5000  59.0000 Du        
   4639 ****        31.2500  21.5000  59.2500 Du        
   4640 ****        31.2500  21.5000  59.5000 Du        
   4641 ****        31.2500  21.7500  58.5000 Du        
   4642 ****        31.2500  21.7500  58.7500 Du        
   4643 ****        31.2500  21.7500  59.0000 Du        
   4644 ****        31.2500  21.7500  59.2500 Du        
   4645 ****        31.2500  21.7500  59.5000 Du        
   4646 ****        31.2500  22.0000  58.5000 Du        
   4647 ****        31.2500  22.0000  58.7500 Du        
   4648 ****        31.2500  22.0000  59.0000 Du        
   4649 ****        31.2500  22.0000  59.2500 Du        
   4650 ****        31.2500  22.0000  59.5000 Du        
   4651 ****        31.2500  22.0000  59.7500 Du        
   4652 ****        31.2500  22.2500  58.7500 Du        
   4653 ****        31.2500  22.2500  59.0000 Du        
   4654 ****        31.2500  22.2500  59.2500 Du        
   4655 ****        31.2500  22.2500  59.5000 Du        
   4656 ****        31.2500  22.2500  59.7500 Du        
   4657 ****        31.2500  22.5000  58.5000 Du        
   4658 ****        31.2500  22.5000  58.7500 Du        
   4659 ****        31.2500  22.5000  59.0000 Du        
   4660 ****        31.2500  22.5000  59.2500 Du        
   4661 ****        31.2500  22.5000  59.5000 Du        
   4662 ****        31.2500  22.5000  59.7500 Du        
   4663 ****        31.2500  22.7500  58.5000 Du        
   4664 ****        31.2500  22.7500  58.7500 Du        
   4665 ****        31.2500  22.7500  59.0000 Du        
   4666 ****        31.2500  22.7500  59.2500 Du        
   4667 ****        31.2500  22.7500  59.5000 Du        
   4668 ****        31.2500  22.7500  59.7500 Du        
   4669 ****        31.2500  23.0000  58.5000 Du        
   4670 ****        31.2500  23.0000  58.7500 Du        
   4671 ****        31.2500  23.0000  59.0000 Du        
   4672 ****        31.2500  23.0000  59.2500 Du        
   4673 ****        31.2500  23.0000  59.5000 Du        
   4674 ****        31.2500  23.0000  59.7500 Du        
   4675 ****        31.2500  23.2500  58.5000 Du        
   4676 ****        31.2500  23.2500  58.7500 Du        
   4677 ****        31.2500  23.2500  59.0000 Du        
   4678 ****        31.2500  23.2500  59.2500 Du        
   4679 ****        31.2500  23.2500  59.5000 Du        
   4680 ****        31.2500  23.2500  59.7500 Du        
   4681 ****        31.2500  23.5000  58.5000 Du        
   4682 ****        31.2500  23.5000  58.7500 Du        
   4683 ****        31.2500  23.5000  59.0000 Du        
   4684 ****        31.2500  23.5000  59.2500 Du        
   4685 ****        31.2500  23.5000  59.5000 Du        
   4686 ****        31.2500  23.5000  59.7500 Du        
   4687 ****        31.2500  23.7500  58.5000 Du        
   4688 ****        31.2500  23.7500  58.7500 Du        
   4689 ****        31.2500  23.7500  59.0000 Du        
   4690 ****        31.2500  23.7500  59.2500 Du        
   4691 ****        31.2500  23.7500  59.5000 Du        
   4692 ****        31.2500  23.7500  59.7500 Du        
   4693 ****        31.2500  24.0000  58.7500 Du        
   4694 ****        31.2500  24.0000  59.0000 Du        
   4695 ****        31.2500  24.0000  59.2500 Du        
   4696 ****        31.2500  24.0000  59.5000 Du        
   4697 ****        31.2500  24.0000  59.7500 Du        
   4698 ****        31.2500  24.2500  59.0000 Du        
   4699 ****        31.2500  24.2500  59.2500 Du        
   4700 ****        31.5000  12.2500  56.5000 Du        
   4701 ****        31.5000  12.5000  56.2500 Du        
   4702 ****        31.5000  12.5000  56.5000 Du        
   4703 ****        31.5000  12.5000  56.7500 Du        
   4704 ****        31.5000  12.5000  57.0000 Du        
   4705 ****        31.5000  12.7500  56.0000 Du        
   4706 ****        31.5000  12.7500  56.2500 Du        
   4707 ****        31.5000  12.7500  56.5000 Du        
   4708 ****        31.5000  12.7500  56.7500 Du        
   4709 ****        31.5000  12.7500  57.0000 Du        
   4710 ****        31.5000  12.7500  57.2500 Du        
   4711 ****        31.5000  12.7500  57.5000 Du        
   4712 ****        31.5000  13.0000  56.0000 Du        
   4713 ****        31.5000  13.0000  56.2500 Du        
   4714 ****        31.5000  13.0000  56.5000 Du        
   4715 ****        31.5000  13.0000  56.7500 Du        
   4716 ****        31.5000  13.0000  57.0000 Du        
   4717 ****        31.5000  13.0000  57.2500 Du        
   4718 ****        31.5000  13.0000  57.5000 Du        
   4719 ****        31.5000  13.0000  57.7500 Du        
   4720 ****        31.5000  13.0000  58.0000 Du        
   4721 ****        31.5000  13.2500  56.0000 Du        
   4722 ****        31.5000  13.2500  56.2500 Du        
   4723 ****        31.5000  13.2500  56.5000 Du        
   4724 ****        31.5000  13.2500  56.7500 Du        
   4725 ****        31.5000  13.2500  57.0000 Du        
   4726 ****        31.5000  13.2500  57.2500 Du        
   4727 ****        31.5000  13.2500  57.5000 Du        
   4728 ****        31.5000  13.2500  57.7500 Du        
   4729 ****        31.5000  13.2500  58.0000 Du        
   4730 ****        31.5000  13.5000  56.5000 Du        
   4731 ****        31.5000  13.5000  56.7500 Du        
   4732 ****        31.5000  13.5000  57.0000 Du        
   4733 ****        31.5000  13.5000  57.2500 Du        
   4734 ****        31.5000  13.5000  57.5000 Du        
   4735 ****        31.5000  13.5000  57.7500 Du        
   4736 ****        31.5000  13.5000  58.0000 Du        
   4737 ****        31.5000  13.7500  56.7500 Du        
   4738 ****        31.5000  13.7500  57.0000 Du        
   4739 ****        31.5000  13.7500  57.2500 Du        
   4740 ****        31.5000  13.7500  57.5000 Du        
   4741 ****        31.5000  13.7500  57.7500 Du        
   4742 ****        31.5000  13.7500  58.0000 Du        
   4743 ****        31.5000  13.7500  58.2500 Du        
   4744 ****        31.5000  14.0000  57.0000 Du        
   4745 ****        31.5000  14.0000  57.2500 Du        
   4746 ****        31.5000  14.0000  57.5000 Du        
   4747 ****        31.5000  14.0000  57.7500 Du        
   4748 ****        31.5000  14.0000  58.0000 Du        
   4749 ****        31.5000  14.0000  58.2500 Du        
   4750 ****        31.5000  14.2500  57.2500 Du        
   4751 ****        31.5000  14.2500  57.5000 Du        
   4752 ****        31.5000  14.2500  57.7500 Du        
   4753 ****        31.5000  14.2500  58.0000 Du        
   4754 ****        31.5000  14.2500  58.2500 Du        
   4755 ****        31.5000  14.5000  57.2500 Du        
   4756 ****        31.5000  14.5000  57.5000 Du        
   4757 ****        31.5000  14.5000  57.7500 Du        
   4758 ****        31.5000  14.5000  58.0000 Du        
   4759 ****        31.5000  14.5000  58.2500 Du        
   4760 ****        31.5000  14.7500  57.5000 Du        
   4761 ****        31.5000  14.7500  57.7500 Du        
   4762 ****        31.5000  14.7500  58.0000 Du        
   4763 ****        31.5000  14.7500  58.2500 Du        
   4764 ****        31.5000  15.0000  57.7500 Du        
   4765 ****        31.5000  15.0000  58.0000 Du        
   4766 ****        31.5000  15.0000  58.2500 Du        
   4767 ****        31.5000  15.2500  57.7500 Du        
   4768 ****        31.5000  15.2500  58.0000 Du        
   4769 ****        31.5000  15.5000  57.7500 Du        
   4770 ****        31.5000  15.5000  58.0000 Du        
   4771 ****        31.5000  15.7500  58.0000 Du        
   4772 ****        31.5000  16.0000  58.0000 Du        
   4773 ****        31.5000  16.2500  58.0000 Du        
   4774 ****        31.5000  16.7500  58.0000 Du        
   4775 ****        31.5000  17.0000  58.0000 Du        
   4776 ****        31.5000  17.0000  58.2500 Du        
   4777 ****        31.5000  17.2500  58.0000 Du        
   4778 ****        31.5000  17.2500  58.2500 Du        
   4779 ****        31.5000  17.2500  58.5000 Du        
   4780 ****        31.5000  17.5000  57.7500 Du        
   4781 ****        31.5000  17.5000  58.0000 Du        
   4782 ****        31.5000  17.5000  58.2500 Du        
   4783 ****        31.5000  17.5000  58.5000 Du        
   4784 ****        31.5000  17.5000  58.7500 Du        
   4785 ****        31.5000  17.7500  57.7500 Du        
   4786 ****        31.5000  17.7500  58.0000 Du        
   4787 ****        31.5000  17.7500  58.2500 Du        
   4788 ****        31.5000  17.7500  58.5000 Du        
   4789 ****        31.5000  17.7500  58.7500 Du        
   4790 ****        31.5000  18.0000  57.7500 Du        
   4791 ****        31.5000  18.0000  58.0000 Du        
   4792 ****        31.5000  18.0000  58.2500 Du        
   4793 ****        31.5000  18.0000  58.5000 Du        
   4794 ****        31.5000  18.0000  58.7500 Du        
   4795 ****        31.5000  18.0000  59.0000 Du        
   4796 ****        31.5000  18.2500  57.7500 Du        
   4797 ****        31.5000  18.2500  58.0000 Du        
   4798 ****        31.5000  18.2500  58.2500 Du        
   4799 ****        31.5000  18.2500  58.5000 Du        
   4800 ****        31.5000  18.2500  58.7500 Du        
   4801 ****        31.5000  18.2500  59.0000 Du        
   4802 ****        31.5000  18.2500  59.2500 Du        
   4803 ****        31.5000  18.5000  57.7500 Du        
   4804 ****        31.5000  18.5000  58.0000 Du        
   4805 ****        31.5000  18.5000  58.2500 Du        
   4806 ****        31.5000  18.5000  58.5000 Du        
   4807 ****        31.5000  18.5000  58.7500 Du        
   4808 ****        31.5000  18.5000  59.0000 Du        
   4809 ****        31.5000  18.5000  59.2500 Du        
   4810 ****        31.5000  18.5000  59.5000 Du        
   4811 ****        31.5000  18.5000  59.7500 Du        
   4812 ****        31.5000  18.7500  57.7500 Du        
   4813 ****        31.5000  18.7500  58.0000 Du        
   4814 ****        31.5000  18.7500  58.2500 Du        
   4815 ****        31.5000  18.7500  58.5000 Du        
   4816 ****        31.5000  18.7500  58.7500 Du        
   4817 ****        31.5000  18.7500  59.0000 Du        
   4818 ****        31.5000  18.7500  59.2500 Du        
   4819 ****        31.5000  18.7500  59.5000 Du        
   4820 ****        31.5000  18.7500  59.7500 Du        
   4821 ****        31.5000  18.7500  60.0000 Du        
   4822 ****        31.5000  19.0000  57.7500 Du        
   4823 ****        31.5000  19.0000  58.0000 Du        
   4824 ****        31.5000  19.0000  58.2500 Du        
   4825 ****        31.5000  19.0000  58.5000 Du        
   4826 ****        31.5000  19.0000  58.7500 Du        
   4827 ****        31.5000  19.0000  59.0000 Du        
   4828 ****        31.5000  19.0000  59.2500 Du        
   4829 ****        31.5000  19.0000  59.5000 Du        
   4830 ****        31.5000  19.0000  59.7500 Du        
   4831 ****        31.5000  19.0000  60.0000 Du        
   4832 ****        31.5000  19.2500  57.5000 Du        
   4833 ****        31.5000  19.2500  57.7500 Du        
   4834 ****        31.5000  19.2500  58.0000 Du        
   4835 ****        31.5000  19.2500  58.2500 Du        
   4836 ****        31.5000  19.2500  58.5000 Du        
   4837 ****        31.5000  19.2500  58.7500 Du        
   4838 ****        31.5000  19.2500  59.0000 Du        
   4839 ****        31.5000  19.2500  59.2500 Du        
   4840 ****        31.5000  19.2500  59.5000 Du        
   4841 ****        31.5000  19.2500  59.7500 Du        
   4842 ****        31.5000  19.2500  60.0000 Du        
   4843 ****        31.5000  19.5000  57.5000 Du        
   4844 ****        31.5000  19.5000  57.7500 Du        
   4845 ****        31.5000  19.5000  58.0000 Du        
   4846 ****        31.5000  19.5000  58.2500 Du        
   4847 ****        31.5000  19.5000  58.5000 Du        
   4848 ****        31.5000  19.5000  58.7500 Du        
   4849 ****        31.5000  19.5000  59.0000 Du        
   4850 ****        31.5000  19.5000  59.2500 Du        
   4851 ****        31.5000  19.5000  59.5000 Du        
   4852 ****        31.5000  19.5000  59.7500 Du        
   4853 ****        31.5000  19.7500  57.2500 Du        
   4854 ****        31.5000  19.7500  57.5000 Du        
   4855 ****        31.5000  19.7500  57.7500 Du        
   4856 ****        31.5000  19.7500  58.0000 Du        
   4857 ****        31.5000  19.7500  58.2500 Du        
   4858 ****        31.5000  19.7500  58.5000 Du        
   4859 ****        31.5000  19.7500  58.7500 Du        
   4860 ****        31.5000  19.7500  59.0000 Du        
   4861 ****        31.5000  19.7500  59.2500 Du        
   4862 ****        31.5000  19.7500  59.5000 Du        
   4863 ****        31.5000  19.7500  59.7500 Du        
   4864 ****        31.5000  20.0000  57.5000 Du        
   4865 ****        31.5000  20.0000  57.7500 Du        
   4866 ****        31.5000  20.0000  58.0000 Du        
   4867 ****        31.5000  20.0000  58.2500 Du        
   4868 ****        31.5000  20.0000  58.5000 Du        
   4869 ****        31.5000  20.0000  58.7500 Du        
   4870 ****        31.5000  20.0000  59.0000 Du        
   4871 ****        31.5000  20.0000  59.2500 Du        
   4872 ****        31.5000  20.0000  59.5000 Du        
   4873 ****        31.5000  20.0000  59.7500 Du        
   4874 ****        31.5000  20.2500  57.5000 Du        
   4875 ****        31.5000  20.2500  57.7500 Du        
   4876 ****        31.5000  20.2500  58.0000 Du        
   4877 ****        31.5000  20.2500  58.2500 Du        
   4878 ****        31.5000  20.2500  58.5000 Du        
   4879 ****        31.5000  20.2500  58.7500 Du        
   4880 ****        31.5000  20.2500  59.0000 Du        
   4881 ****        31.5000  20.2500  59.2500 Du        
   4882 ****        31.5000  20.2500  59.5000 Du        
   4883 ****        31.5000  20.2500  59.7500 Du        
   4884 ****        31.5000  20.5000  57.7500 Du        
   4885 ****        31.5000  20.5000  58.0000 Du        
   4886 ****        31.5000  20.5000  58.2500 Du        
   4887 ****        31.5000  20.5000  58.5000 Du        
   4888 ****        31.5000  20.5000  58.7500 Du        
   4889 ****        31.5000  20.5000  59.0000 Du        
   4890 ****        31.5000  20.5000  59.2500 Du        
   4891 ****        31.5000  20.7500  57.7500 Du        
   4892 ****        31.5000  20.7500  58.0000 Du        
   4893 ****        31.5000  20.7500  58.2500 Du        
   4894 ****        31.5000  20.7500  58.5000 Du        
   4895 ****        31.5000  20.7500  58.7500 Du        
   4896 ****        31.5000  20.7500  59.0000 Du        
   4897 ****        31.5000  20.7500  59.2500 Du        
   4898 ****        31.5000  20.7500  59.5000 Du        
   4899 ****        31.5000  21.0000  58.0000 Du        
   4900 ****        31.5000  21.0000  58.2500 Du        
   4901 ****        31.5000  21.0000  58.5000 Du        
   4902 ****        31.5000  21.0000  58.7500 Du        
   4903 ****        31.5000  21.0000  59.0000 Du        
   4904 ****        31.5000  21.0000  59.2500 Du        
   4905 ****        31.5000  21.2500  58.0000 Du        
   4906 ****        31.5000  21.2500  58.2500 Du        
   4907 ****        31.5000  21.2500  58.5000 Du        
   4908 ****        31.5000  21.2500  58.7500 Du        
   4909 ****        31.5000  21.2500  59.0000 Du        
   4910 ****        31.5000  21.2500  59.2500 Du        
   4911 ****        31.5000  21.5000  58.2500 Du        
   4912 ****        31.5000  21.5000  58.5000 Du        
   4913 ****        31.5000  21.5000  58.7500 Du        
   4914 ****        31.5000  21.5000  59.0000 Du        
   4915 ****        31.5000  21.5000  59.2500 Du        
   4916 ****        31.5000  21.7500  58.2500 Du        
   4917 ****        31.5000  21.7500  58.5000 Du        
   4918 ****        31.5000  21.7500  58.7500 Du        
   4919 ****        31.5000  21.7500  59.0000 Du        
   4920 ****        31.5000  21.7500  59.2500 Du        
   4921 ****        31.5000  22.0000  58.5000 Du        
   4922 ****        31.5000  22.0000  58.7500 Du        
   4923 ****        31.5000  22.0000  59.0000 Du        
   4924 ****        31.5000  22.0000  59.2500 Du        
   4925 ****        31.5000  22.2500  58.5000 Du        
   4926 ****        31.5000  22.2500  58.7500 Du        
   4927 ****        31.5000  22.2500  59.0000 Du        
   4928 ****        31.5000  22.2500  59.2500 Du        
   4929 ****        31.5000  22.5000  58.5000 Du        
   4930 ****        31.5000  22.5000  58.7500 Du        
   4931 ****        31.5000  22.5000  59.0000 Du        
   4932 ****        31.5000  22.5000  59.2500 Du        
   4933 ****        31.5000  22.7500  58.5000 Du        
   4934 ****        31.5000  22.7500  58.7500 Du        
   4935 ****        31.5000  22.7500  59.0000 Du        
   4936 ****        31.5000  22.7500  59.2500 Du        
   4937 ****        31.5000  23.0000  58.5000 Du        
   4938 ****        31.5000  23.0000  58.7500 Du        
   4939 ****        31.5000  23.0000  59.0000 Du        
   4940 ****        31.5000  23.0000  59.2500 Du        
   4941 ****        31.5000  23.2500  58.5000 Du        
   4942 ****        31.5000  23.2500  58.7500 Du        
   4943 ****        31.5000  23.2500  59.0000 Du        
   4944 ****        31.5000  23.2500  59.2500 Du        
   4945 ****        31.5000  23.5000  58.5000 Du        
   4946 ****        31.5000  23.5000  58.7500 Du        
   4947 ****        31.5000  23.5000  59.0000 Du        
   4948 ****        31.5000  23.5000  59.2500 Du        
   4949 ****        31.5000  23.7500  58.5000 Du        
   4950 ****        31.5000  23.7500  58.7500 Du        
   4951 ****        31.5000  23.7500  59.0000 Du        
   4952 ****        31.5000  23.7500  59.2500 Du        
   4953 ****        31.5000  24.0000  58.7500 Du        
   4954 ****        31.5000  24.0000  59.0000 Du        
   4955 ****        31.5000  24.0000  59.2500 Du        
   4956 ****        31.5000  24.2500  58.7500 Du        
   4957 ****        31.5000  24.2500  59.0000 Du        
   4958 ****        31.5000  24.2500  59.2500 Du        
   4959 ****        31.7500  12.2500  56.2500 Du        
   4960 ****        31.7500  12.2500  56.5000 Du        
   4961 ****        31.7500  12.5000  56.0000 Du        
   4962 ****        31.7500  12.5000  56.2500 Du        
   4963 ****        31.7500  12.5000  56.5000 Du        
   4964 ****        31.7500  12.5000  56.7500 Du        
   4965 ****        31.7500  12.5000  57.0000 Du        
   4966 ****        31.7500  12.7500  55.7500 Du        
   4967 ****        31.7500  12.7500  56.0000 Du        
   4968 ****        31.7500  12.7500  56.2500 Du        
   4969 ****        31.7500  12.7500  56.5000 Du        
   4970 ****        31.7500  12.7500  56.7500 Du        
   4971 ****        31.7500  12.7500  57.0000 Du        
   4972 ****        31.7500  12.7500  57.2500 Du        
   4973 ****        31.7500  13.0000  55.7500 Du        
   4974 ****        31.7500  13.0000  56.0000 Du        
   4975 ****        31.7500  13.0000  56.2500 Du        
   4976 ****        31.7500  13.0000  56.5000 Du        
   4977 ****        31.7500  13.0000  56.7500 Du        
   4978 ****        31.7500  13.0000  57.0000 Du        
   4979 ****        31.7500  13.0000  57.2500 Du        
   4980 ****        31.7500  13.0000  57.5000 Du        
   4981 ****        31.7500  13.0000  57.7500 Du        
   4982 ****        31.7500  13.2500  56.0000 Du        
   4983 ****        31.7500  13.2500  56.2500 Du        
   4984 ****        31.7500  13.2500  56.5000 Du        
   4985 ****        31.7500  13.2500  56.7500 Du        
   4986 ****        31.7500  13.2500  57.0000 Du        
   4987 ****        31.7500  13.2500  57.2500 Du        
   4988 ****        31.7500  13.2500  57.5000 Du        
   4989 ****        31.7500  13.2500  57.7500 Du        
   4990 ****        31.7500  13.2500  58.0000 Du        
   4991 ****        31.7500  13.5000  56.2500 Du        
   4992 ****        31.7500  13.5000  56.5000 Du        
   4993 ****        31.7500  13.5000  56.7500 Du        
   4994 ****        31.7500  13.5000  57.0000 Du        
   4995 ****        31.7500  13.5000  57.2500 Du        
   4996 ****        31.7500  13.5000  57.5000 Du        
   4997 ****        31.7500  13.5000  57.7500 Du        
   4998 ****        31.7500  13.5000  58.0000 Du        
   4999 ****        31.7500  13.7500  56.5000 Du        
   5000 ****        31.7500  13.7500  56.7500 Du        
   5001 ****        31.7500  13.7500  57.0000 Du        
   5002 ****        31.7500  13.7500  57.2500 Du        
   5003 ****        31.7500  13.7500  57.5000 Du        
   5004 ****        31.7500  13.7500  57.7500 Du        
   5005 ****        31.7500  13.7500  58.0000 Du        
   5006 ****        31.7500  14.0000  56.7500 Du        
   5007 ****        31.7500  14.0000  57.0000 Du        
   5008 ****        31.7500  14.0000  57.2500 Du        
   5009 ****        31.7500  14.0000  57.5000 Du        
   5010 ****        31.7500  14.0000  57.7500 Du        
   5011 ****        31.7500  14.0000  58.0000 Du        
   5012 ****        31.7500  14.2500  57.0000 Du        
   5013 ****        31.7500  14.2500  57.2500 Du        
   5014 ****        31.7500  14.2500  57.5000 Du        
   5015 ****        31.7500  14.2500  57.7500 Du        
   5016 ****        31.7500  14.2500  58.0000 Du        
   5017 ****        31.7500  14.5000  57.2500 Du        
   5018 ****        31.7500  14.5000  57.5000 Du        
   5019 ****        31.7500  14.5000  57.7500 Du        
   5020 ****        31.7500  14.5000  58.0000 Du        
   5021 ****        31.7500  14.7500  57.5000 Du        
   5022 ****        31.7500  14.7500  57.7500 Du        
   5023 ****        31.7500  14.7500  58.0000 Du        
   5024 ****        31.7500  15.0000  57.7500 Du        
   5025 ****        31.7500  15.0000  58.0000 Du        
   5026 ****        31.7500  15.2500  57.7500 Du        
   5027 ****        31.7500  15.2500  58.0000 Du        
   5028 ****        31.7500  15.5000  57.7500 Du        
   5029 ****        31.7500  15.5000  58.0000 Du        
   5030 ****        31.7500  15.7500  57.7500 Du        
   5031 ****        31.7500  15.7500  58.0000 Du        
   5032 ****        31.7500  16.0000  57.7500 Du        
   5033 ****        31.7500  16.0000  58.0000 Du        
   5034 ****        31.7500  16.2500  57.7500 Du        
   5035 ****        31.7500  16.2500  58.0000 Du        
   5036 ****        31.7500  16.5000  58.0000 Du        
   5037 ****        31.7500  16.7500  57.7500 Du        
   5038 ****        31.7500  16.7500  58.0000 Du        
   5039 ****        31.7500  17.0000  57.7500 Du        
   5040 ****        31.7500  17.0000  58.0000 Du        
   5041 ****        31.7500  17.0000  58.2500 Du        
   5042 ****        31.7500  17.2500  57.7500 Du        
   5043 ****        31.7500  17.2500  58.0000 Du        
   5044 ****        31.7500  17.2500  58.2500 Du        
   5045 ****        31.7500  17.5000  57.7500 Du        
   5046 ****        31.7500  17.5000  58.0000 Du        
   5047 ****        31.7500  17.5000  58.2500 Du        
   5048 ****        31.7500  17.5000  58.5000 Du        
   5049 ****        31.7500  17.7500  57.5000 Du        
   5050 ****        31.7500  17.7500  57.7500 Du        
   5051 ****        31.7500  17.7500  58.0000 Du        
   5052 ****        31.7500  17.7500  58.2500 Du        
   5053 ****        31.7500  17.7500  58.5000 Du        
   5054 ****        31.7500  17.7500  58.7500 Du        
   5055 ****        31.7500  18.0000  57.5000 Du        
   5056 ****        31.7500  18.0000  57.7500 Du        
   5057 ****        31.7500  18.0000  58.0000 Du        
   5058 ****        31.7500  18.0000  58.2500 Du        
   5059 ****        31.7500  18.0000  58.5000 Du        
   5060 ****        31.7500  18.0000  58.7500 Du        
   5061 ****        31.7500  18.0000  59.0000 Du        
   5062 ****        31.7500  18.2500  57.5000 Du        
   5063 ****        31.7500  18.2500  57.7500 Du        
   5064 ****        31.7500  18.2500  58.0000 Du        
   5065 ****        31.7500  18.2500  58.2500 Du        
   5066 ****        31.7500  18.2500  58.5000 Du        
   5067 ****        31.7500  18.2500  58.7500 Du        
   5068 ****        31.7500  18.2500  59.0000 Du        
   5069 ****        31.7500  18.2500  59.2500 Du        
   5070 ****        31.7500  18.5000  57.5000 Du        
   5071 ****        31.7500  18.5000  57.7500 Du        
   5072 ****        31.7500  18.5000  58.0000 Du        
   5073 ****        31.7500  18.5000  58.2500 Du        
   5074 ****        31.7500  18.5000  58.5000 Du        
   5075 ****        31.7500  18.5000  58.7500 Du        
   5076 ****        31.7500  18.5000  59.0000 Du        
   5077 ****        31.7500  18.5000  59.2500 Du        
   5078 ****        31.7500  18.5000  59.5000 Du        
   5079 ****        31.7500  18.7500  57.5000 Du        
   5080 ****        31.7500  18.7500  57.7500 Du        
   5081 ****        31.7500  18.7500  58.0000 Du        
   5082 ****        31.7500  18.7500  58.2500 Du        
   5083 ****        31.7500  18.7500  58.5000 Du        
   5084 ****        31.7500  18.7500  58.7500 Du        
   5085 ****        31.7500  18.7500  59.0000 Du        
   5086 ****        31.7500  18.7500  59.2500 Du        
   5087 ****        31.7500  18.7500  59.5000 Du        
   5088 ****        31.7500  18.7500  59.7500 Du        
   5089 ****        31.7500  18.7500  60.0000 Du        
   5090 ****        31.7500  19.0000  57.2500 Du        
   5091 ****        31.7500  19.0000  57.5000 Du        
   5092 ****        31.7500  19.0000  57.7500 Du        
   5093 ****        31.7500  19.0000  58.0000 Du        
   5094 ****        31.7500  19.0000  58.2500 Du        
   5095 ****        31.7500  19.0000  58.5000 Du        
   5096 ****        31.7500  19.0000  58.7500 Du        
   5097 ****        31.7500  19.0000  59.0000 Du        
   5098 ****        31.7500  19.0000  59.2500 Du        
   5099 ****        31.7500  19.0000  59.5000 Du        
   5100 ****        31.7500  19.0000  59.7500 Du        
   5101 ****        31.7500  19.0000  60.0000 Du        
   5102 ****        31.7500  19.2500  57.2500 Du        
   5103 ****        31.7500  19.2500  57.5000 Du        
   5104 ****        31.7500  19.2500  57.7500 Du        
   5105 ****        31.7500  19.2500  58.0000 Du        
   5106 ****        31.7500  19.2500  58.2500 Du        
   5107 ****        31.7500  19.2500  58.5000 Du        
   5108 ****        31.7500  19.2500  58.7500 Du        
   5109 ****        31.7500  19.2500  59.0000 Du        
   5110 ****        31.7500  19.2500  59.2500 Du        
   5111 ****        31.7500  19.2500  59.5000 Du        
   5112 ****        31.7500  19.2500  59.7500 Du        
   5113 ****        31.7500  19.2500  60.0000 Du        
   5114 ****        31.7500  19.5000  57.2500 Du        
   5115 ****        31.7500  19.5000  57.5000 Du        
   5116 ****        31.7500  19.5000  57.7500 Du        
   5117 ****        31.7500  19.5000  58.0000 Du        
   5118 ****        31.7500  19.5000  58.2500 Du        
   5119 ****        31.7500  19.5000  58.5000 Du        
   5120 ****        31.7500  19.5000  58.7500 Du        
   5121 ****        31.7500  19.5000  59.0000 Du        
   5122 ****        31.7500  19.5000  59.2500 Du        
   5123 ****        31.7500  19.5000  59.5000 Du        
   5124 ****        31.7500  19.5000  59.7500 Du        
   5125 ****        31.7500  19.7500  57.2500 Du        
   5126 ****        31.7500  19.7500  57.5000 Du        
   5127 ****        31.7500  19.7500  57.7500 Du        
   5128 ****        31.7500  19.7500  58.0000 Du        
   5129 ****        31.7500  19.7500  58.2500 Du        
   5130 ****        31.7500  19.7500  58.5000 Du        
   5131 ****        31.7500  19.7500  58.7500 Du        
   5132 ****        31.7500  19.7500  59.0000 Du        
   5133 ****        31.7500  19.7500  59.2500 Du        
   5134 ****        31.7500  19.7500  59.5000 Du        
   5135 ****        31.7500  19.7500  59.7500 Du        
   5136 ****        31.7500  20.0000  57.2500 Du        
   5137 ****        31.7500  20.0000  57.5000 Du        
   5138 ****        31.7500  20.0000  57.7500 Du        
   5139 ****        31.7500  20.0000  58.0000 Du        
   5140 ****        31.7500  20.0000  58.2500 Du        
   5141 ****        31.7500  20.0000  58.5000 Du        
   5142 ****        31.7500  20.0000  58.7500 Du        
   5143 ****        31.7500  20.0000  59.0000 Du        
   5144 ****        31.7500  20.0000  59.2500 Du        
   5145 ****        31.7500  20.0000  59.5000 Du        
   5146 ****        31.7500  20.0000  59.7500 Du        
   5147 ****        31.7500  20.2500  57.5000 Du        
   5148 ****        31.7500  20.2500  57.7500 Du        
   5149 ****        31.7500  20.2500  58.0000 Du        
   5150 ****        31.7500  20.2500  58.2500 Du        
   5151 ****        31.7500  20.2500  58.5000 Du        
   5152 ****        31.7500  20.2500  58.7500 Du        
   5153 ****        31.7500  20.2500  59.0000 Du        
   5154 ****        31.7500  20.2500  59.2500 Du        
   5155 ****        31.7500  20.5000  57.7500 Du        
   5156 ****        31.7500  20.5000  58.0000 Du        
   5157 ****        31.7500  20.5000  58.2500 Du        
   5158 ****        31.7500  20.5000  58.5000 Du        
   5159 ****        31.7500  20.5000  58.7500 Du        
   5160 ****        31.7500  20.5000  59.0000 Du        
   5161 ****        31.7500  20.5000  59.2500 Du        
   5162 ****        31.7500  20.7500  57.7500 Du        
   5163 ****        31.7500  20.7500  58.0000 Du        
   5164 ****        31.7500  20.7500  58.2500 Du        
   5165 ****        31.7500  20.7500  58.5000 Du        
   5166 ****        31.7500  20.7500  58.7500 Du        
   5167 ****        31.7500  20.7500  59.0000 Du        
   5168 ****        31.7500  20.7500  59.2500 Du        
   5169 ****        31.7500  21.0000  57.7500 Du        
   5170 ****        31.7500  21.0000  58.0000 Du        
   5171 ****        31.7500  21.0000  58.2500 Du        
   5172 ****        31.7500  21.0000  58.5000 Du        
   5173 ****        31.7500  21.0000  58.7500 Du        
   5174 ****        31.7500  21.0000  59.0000 Du        
   5175 ****        31.7500  21.0000  59.2500 Du        
   5176 ****        31.7500  21.2500  58.0000 Du        
   5177 ****        31.7500  21.2500  58.2500 Du        
   5178 ****        31.7500  21.2500  58.5000 Du        
   5179 ****        31.7500  21.2500  58.7500 Du        
   5180 ****        31.7500  21.2500  59.0000 Du        
   5181 ****        31.7500  21.2500  59.2500 Du        
   5182 ****        31.7500  21.5000  58.2500 Du        
   5183 ****        31.7500  21.5000  58.5000 Du        
   5184 ****        31.7500  21.5000  58.7500 Du        
   5185 ****        31.7500  21.5000  59.0000 Du        
   5186 ****        31.7500  21.5000  59.2500 Du        
   5187 ****        31.7500  21.7500  58.2500 Du        
   5188 ****        31.7500  21.7500  58.5000 Du        
   5189 ****        31.7500  21.7500  58.7500 Du        
   5190 ****        31.7500  21.7500  59.0000 Du        
   5191 ****        31.7500  21.7500  59.2500 Du        
   5192 ****        31.7500  22.0000  58.2500 Du        
   5193 ****        31.7500  22.0000  58.5000 Du        
   5194 ****        31.7500  22.0000  58.7500 Du        
   5195 ****        31.7500  22.0000  59.0000 Du        
   5196 ****        31.7500  22.0000  59.2500 Du        
   5197 ****        31.7500  22.2500  58.2500 Du        
   5198 ****        31.7500  22.2500  58.5000 Du        
   5199 ****        31.7500  22.2500  58.7500 Du        
   5200 ****        31.7500  22.2500  59.0000 Du        
   5201 ****        31.7500  22.2500  59.2500 Du        
   5202 ****        31.7500  22.5000  58.2500 Du        
   5203 ****        31.7500  22.5000  58.5000 Du        
   5204 ****        31.7500  22.5000  58.7500 Du        
   5205 ****        31.7500  22.5000  59.0000 Du        
   5206 ****        31.7500  22.5000  59.2500 Du        
   5207 ****        31.7500  22.7500  58.2500 Du        
   5208 ****        31.7500  22.7500  58.5000 Du        
   5209 ****        31.7500  22.7500  58.7500 Du        
   5210 ****        31.7500  22.7500  59.0000 Du        
   5211 ****        31.7500  22.7500  59.2500 Du        
   5212 ****        31.7500  23.0000  58.2500 Du        
   5213 ****        31.7500  23.0000  58.5000 Du        
   5214 ****        31.7500  23.0000  58.7500 Du        
   5215 ****        31.7500  23.0000  59.0000 Du        
   5216 ****        31.7500  23.0000  59.2500 Du        
   5217 ****        31.7500  23.2500  58.5000 Du        
   5218 ****        31.7500  23.2500  58.7500 Du        
   5219 ****        31.7500  23.2500  59.0000 Du        
   5220 ****        31.7500  23.2500  59.2500 Du        
   5221 ****        31.7500  23.5000  58.5000 Du        
   5222 ****        31.7500  23.5000  58.7500 Du        
   5223 ****        31.7500  23.5000  59.0000 Du        
   5224 ****        31.7500  23.5000  59.2500 Du        
   5225 ****        31.7500  23.7500  58.7500 Du        
   5226 ****        31.7500  23.7500  59.0000 Du        
   5227 ****        31.7500  23.7500  59.2500 Du        
   5228 ****        31.7500  24.0000  58.7500 Du        
   5229 ****        31.7500  24.0000  59.0000 Du        
   5230 ****        31.7500  24.0000  59.2500 Du        
   5231 ****        31.7500  24.2500  59.0000 Du        
   5232 ****        31.7500  24.2500  59.2500 Du        
   5233 ****        32.0000  12.2500  56.0000 Du        
   5234 ****        32.0000  12.2500  56.2500 Du        
   5235 ****        32.0000  12.5000  55.5000 Du        
   5236 ****        32.0000  12.5000  55.7500 Du        
   5237 ****        32.0000  12.5000  56.0000 Du        
   5238 ****        32.0000  12.5000  56.2500 Du        
   5239 ****        32.0000  12.5000  56.5000 Du        
   5240 ****        32.0000  12.5000  56.7500 Du        
   5241 ****        32.0000  12.7500  55.2500 Du        
   5242 ****        32.0000  12.7500  55.5000 Du        
   5243 ****        32.0000  12.7500  55.7500 Du        
   5244 ****        32.0000  12.7500  56.0000 Du        
   5245 ****        32.0000  12.7500  56.2500 Du        
   5246 ****        32.0000  12.7500  56.5000 Du        
   5247 ****        32.0000  12.7500  56.7500 Du        
   5248 ****        32.0000  12.7500  57.0000 Du        
   5249 ****        32.0000  13.0000  55.2500 Du        
   5250 ****        32.0000  13.0000  55.5000 Du        
   5251 ****        32.0000  13.0000  55.7500 Du        
   5252 ****        32.0000  13.0000  56.0000 Du        
   5253 ****        32.0000  13.0000  56.2500 Du        
   5254 ****        32.0000  13.0000  56.5000 Du        
   5255 ****        32.0000  13.0000  56.7500 Du        
   5256 ****        32.0000  13.0000  57.0000 Du        
   5257 ****        32.0000  13.0000  57.2500 Du        
   5258 ****        32.0000  13.2500  55.7500 Du        
   5259 ****        32.0000  13.2500  56.0000 Du        
   5260 ****        32.0000  13.2500  56.2500 Du        
   5261 ****        32.0000  13.2500  56.5000 Du        
   5262 ****        32.0000  13.2500  56.7500 Du        
   5263 ****        32.0000  13.2500  57.0000 Du        
   5264 ****        32.0000  13.2500  57.2500 Du        
   5265 ****        32.0000  13.2500  57.5000 Du        
   5266 ****        32.0000  13.2500  57.7500 Du        
   5267 ****        32.0000  13.5000  56.2500 Du        
   5268 ****        32.0000  13.5000  56.5000 Du        
   5269 ****        32.0000  13.5000  56.7500 Du        
   5270 ****        32.0000  13.5000  57.0000 Du        
   5271 ****        32.0000  13.5000  57.2500 Du        
   5272 ****        32.0000  13.5000  57.5000 Du        
   5273 ****        32.0000  13.5000  57.7500 Du        
   5274 ****        32.0000  13.7500  56.5000 Du        
   5275 ****        32.0000  13.7500  56.7500 Du        
   5276 ****        32.0000  13.7500  57.0000 Du        
   5277 ****        32.0000  13.7500  57.2500 Du        
   5278 ****        32.0000  13.7500  57.5000 Du        
   5279 ****        32.0000  13.7500  57.7500 Du        
   5280 ****        32.0000  14.0000  56.7500 Du        
   5281 ****        32.0000  14.0000  57.0000 Du        
   5282 ****        32.0000  14.0000  57.2500 Du        
   5283 ****        32.0000  14.0000  57.5000 Du        
   5284 ****        32.0000  14.0000  57.7500 Du        
   5285 ****        32.0000  14.2500  57.0000 Du        
   5286 ****        32.0000  14.2500  57.2500 Du        
   5287 ****        32.0000  14.2500  57.5000 Du        
   5288 ****        32.0000  14.2500  57.7500 Du        
   5289 ****        32.0000  14.2500  58.0000 Du        
   5290 ****        32.0000  14.5000  57.2500 Du        
   5291 ****        32.0000  14.5000  57.5000 Du        
   5292 ****        32.0000  14.5000  57.7500 Du        
   5293 ****        32.0000  14.7500  57.2500 Du        
   5294 ****        32.0000  14.7500  57.5000 Du        
   5295 ****        32.0000  14.7500  57.7500 Du        
   5296 ****        32.0000  14.7500  58.0000 Du        
   5297 ****        32.0000  15.0000  57.5000 Du        
   5298 ****        32.0000  15.0000  57.7500 Du        
   5299 ****        32.0000  15.0000  58.0000 Du        
   5300 ****        32.0000  15.2500  57.7500 Du        
   5301 ****        32.0000  15.2500  58.0000 Du        
   5302 ****        32.0000  15.5000  57.7500 Du        
   5303 ****        32.0000  15.5000  58.0000 Du        
   5304 ****        32.0000  15.7500  57.7500 Du        
   5305 ****        32.0000  15.7500  58.0000 Du        
   5306 ****        32.0000  16.0000  57.7500 Du        
   5307 ****        32.0000  16.2500  57.7500 Du        
   5308 ****        32.0000  16.2500  58.0000 Du        
   5309 ****        32.0000  16.5000  57.7500 Du        
   5310 ****        32.0000  16.7500  57.7500 Du        
   5311 ****        32.0000  16.7500  58.0000 Du        
   5312 ****        32.0000  17.0000  57.7500 Du        
   5313 ****        32.0000  17.0000  58.0000 Du        
   5314 ****        32.0000  17.2500  57.7500 Du        
   5315 ****        32.0000  17.2500  58.0000 Du        
   5316 ****        32.0000  17.2500  58.2500 Du        
   5317 ****        32.0000  17.5000  57.5000 Du        
   5318 ****        32.0000  17.5000  57.7500 Du        
   5319 ****        32.0000  17.5000  58.0000 Du        
   5320 ****        32.0000  17.5000  58.2500 Du        
   5321 ****        32.0000  17.7500  57.5000 Du        
   5322 ****        32.0000  17.7500  57.7500 Du        
   5323 ****        32.0000  17.7500  58.0000 Du        
   5324 ****        32.0000  17.7500  58.2500 Du        
   5325 ****        32.0000  17.7500  58.5000 Du        
   5326 ****        32.0000  18.0000  57.2500 Du        
   5327 ****        32.0000  18.0000  57.5000 Du        
   5328 ****        32.0000  18.0000  57.7500 Du        
   5329 ****        32.0000  18.0000  58.0000 Du        
   5330 ****        32.0000  18.0000  58.2500 Du        
   5331 ****        32.0000  18.0000  58.5000 Du        
   5332 ****        32.0000  18.0000  58.7500 Du        
   5333 ****        32.0000  18.2500  57.2500 Du        
   5334 ****        32.0000  18.2500  57.5000 Du        
   5335 ****        32.0000  18.2500  57.7500 Du        
   5336 ****        32.0000  18.2500  58.0000 Du        
   5337 ****        32.0000  18.2500  58.2500 Du        
   5338 ****        32.0000  18.2500  58.5000 Du        
   5339 ****        32.0000  18.2500  58.7500 Du        
   5340 ****        32.0000  18.2500  59.0000 Du        
   5341 ****        32.0000  18.5000  57.2500 Du        
   5342 ****        32.0000  18.5000  57.5000 Du        
   5343 ****        32.0000  18.5000  57.7500 Du        
   5344 ****        32.0000  18.5000  58.0000 Du        
   5345 ****        32.0000  18.5000  58.2500 Du        
   5346 ****        32.0000  18.5000  58.5000 Du        
   5347 ****        32.0000  18.5000  58.7500 Du        
   5348 ****        32.0000  18.5000  59.0000 Du        
   5349 ****        32.0000  18.5000  59.2500 Du        
   5350 ****        32.0000  18.7500  57.2500 Du        
   5351 ****        32.0000  18.7500  57.5000 Du        
   5352 ****        32.0000  18.7500  57.7500 Du        
   5353 ****        32.0000  18.7500  58.0000 Du        
   5354 ****        32.0000  18.7500  58.2500 Du        
   5355 ****        32.0000  18.7500  58.5000 Du        
   5356 ****        32.0000  18.7500  58.7500 Du        
   5357 ****        32.0000  18.7500  59.0000 Du        
   5358 ****        32.0000  18.7500  59.2500 Du        
   5359 ****        32.0000  18.7500  59.5000 Du        
   5360 ****        32.0000  18.7500  59.7500 Du        
   5361 ****        32.0000  19.0000  57.2500 Du        
   5362 ****        32.0000  19.0000  57.5000 Du        
   5363 ****        32.0000  19.0000  57.7500 Du        
   5364 ****        32.0000  19.0000  58.0000 Du        
   5365 ****        32.0000  19.0000  58.2500 Du        
   5366 ****        32.0000  19.0000  58.5000 Du        
   5367 ****        32.0000  19.0000  58.7500 Du        
   5368 ****        32.0000  19.0000  59.0000 Du        
   5369 ****        32.0000  19.0000  59.2500 Du        
   5370 ****        32.0000  19.0000  59.5000 Du        
   5371 ****        32.0000  19.0000  59.7500 Du        
   5372 ****        32.0000  19.0000  60.0000 Du        
   5373 ****        32.0000  19.2500  57.2500 Du        
   5374 ****        32.0000  19.2500  57.5000 Du        
   5375 ****        32.0000  19.2500  57.7500 Du        
   5376 ****        32.0000  19.2500  58.0000 Du        
   5377 ****        32.0000  19.2500  58.2500 Du        
   5378 ****        32.0000  19.2500  58.5000 Du        
   5379 ****        32.0000  19.2500  58.7500 Du        
   5380 ****        32.0000  19.2500  59.0000 Du        
   5381 ****        32.0000  19.2500  59.2500 Du        
   5382 ****        32.0000  19.2500  59.5000 Du        
   5383 ****        32.0000  19.2500  59.7500 Du        
   5384 ****        32.0000  19.5000  57.2500 Du        
   5385 ****        32.0000  19.5000  57.5000 Du        
   5386 ****        32.0000  19.5000  57.7500 Du        
   5387 ****        32.0000  19.5000  58.0000 Du        
   5388 ****        32.0000  19.5000  58.2500 Du        
   5389 ****        32.0000  19.5000  58.5000 Du        
   5390 ****        32.0000  19.5000  58.7500 Du        
   5391 ****        32.0000  19.5000  59.0000 Du        
   5392 ****        32.0000  19.5000  59.2500 Du        
   5393 ****        32.0000  19.5000  59.5000 Du        
   5394 ****        32.0000  19.7500  57.2500 Du        
   5395 ****        32.0000  19.7500  57.5000 Du        
   5396 ****        32.0000  19.7500  57.7500 Du        
   5397 ****        32.0000  19.7500  58.0000 Du        
   5398 ****        32.0000  19.7500  58.2500 Du        
   5399 ****        32.0000  19.7500  58.5000 Du        
   5400 ****        32.0000  19.7500  58.7500 Du        
   5401 ****        32.0000  19.7500  59.0000 Du        
   5402 ****        32.0000  19.7500  59.2500 Du        
   5403 ****        32.0000  19.7500  59.5000 Du        
   5404 ****        32.0000  19.7500  59.7500 Du        
   5405 ****        32.0000  20.0000  57.2500 Du        
   5406 ****        32.0000  20.0000  57.5000 Du        
   5407 ****        32.0000  20.0000  57.7500 Du        
   5408 ****        32.0000  20.0000  58.0000 Du        
   5409 ****        32.0000  20.0000  58.2500 Du        
   5410 ****        32.0000  20.0000  58.5000 Du        
   5411 ****        32.0000  20.0000  58.7500 Du        
   5412 ****        32.0000  20.0000  59.0000 Du        
   5413 ****        32.0000  20.0000  59.2500 Du        
   5414 ****        32.0000  20.0000  59.5000 Du        
   5415 ****        32.0000  20.2500  57.5000 Du        
   5416 ****        32.0000  20.2500  57.7500 Du        
   5417 ****        32.0000  20.2500  58.0000 Du        
   5418 ****        32.0000  20.2500  58.2500 Du        
   5419 ****        32.0000  20.2500  58.5000 Du        
   5420 ****        32.0000  20.2500  58.7500 Du        
   5421 ****        32.0000  20.2500  59.0000 Du        
   5422 ****        32.0000  20.2500  59.2500 Du        
   5423 ****        32.0000  20.5000  57.7500 Du        
   5424 ****        32.0000  20.5000  58.0000 Du        
   5425 ****        32.0000  20.5000  58.2500 Du        
   5426 ****        32.0000  20.5000  58.5000 Du        
   5427 ****        32.0000  20.5000  58.7500 Du        
   5428 ****        32.0000  20.5000  59.0000 Du        
   5429 ****        32.0000  20.5000  59.2500 Du        
   5430 ****        32.0000  20.7500  57.7500 Du        
   5431 ****        32.0000  20.7500  58.0000 Du        
   5432 ****        32.0000  20.7500  58.2500 Du        
   5433 ****        32.0000  20.7500  58.5000 Du        
   5434 ****        32.0000  20.7500  58.7500 Du        
   5435 ****        32.0000  20.7500  59.0000 Du        
   5436 ****        32.0000  20.7500  59.2500 Du        
   5437 ****        32.0000  21.0000  57.7500 Du        
   5438 ****        32.0000  21.0000  58.0000 Du        
   5439 ****        32.0000  21.0000  58.2500 Du        
   5440 ****        32.0000  21.0000  58.5000 Du        
   5441 ****        32.0000  21.0000  58.7500 Du        
   5442 ****        32.0000  21.0000  59.0000 Du        
   5443 ****        32.0000  21.0000  59.2500 Du        
   5444 ****        32.0000  21.2500  58.0000 Du        
   5445 ****        32.0000  21.2500  58.2500 Du        
   5446 ****        32.0000  21.2500  58.5000 Du        
   5447 ****        32.0000  21.2500  58.7500 Du        
   5448 ****        32.0000  21.2500  59.0000 Du        
   5449 ****        32.0000  21.2500  59.2500 Du        
   5450 ****        32.0000  21.5000  58.2500 Du        
   5451 ****        32.0000  21.5000  58.5000 Du        
   5452 ****        32.0000  21.5000  58.7500 Du        
   5453 ****        32.0000  21.5000  59.0000 Du        
   5454 ****        32.0000  21.5000  59.2500 Du        
   5455 ****        32.0000  21.7500  58.0000 Du        
   5456 ****        32.0000  21.7500  58.2500 Du        
   5457 ****        32.0000  21.7500  58.5000 Du        
   5458 ****        32.0000  21.7500  58.7500 Du        
   5459 ****        32.0000  21.7500  59.0000 Du        
   5460 ****        32.0000  21.7500  59.2500 Du        
   5461 ****        32.0000  22.0000  58.2500 Du        
   5462 ****        32.0000  22.0000  58.5000 Du        
   5463 ****        32.0000  22.0000  58.7500 Du        
   5464 ****        32.0000  22.0000  59.0000 Du        
   5465 ****        32.0000  22.0000  59.2500 Du        
   5466 ****        32.0000  22.2500  58.2500 Du        
   5467 ****        32.0000  22.2500  58.5000 Du        
   5468 ****        32.0000  22.2500  58.7500 Du        
   5469 ****        32.0000  22.2500  59.0000 Du        
   5470 ****        32.0000  22.2500  59.2500 Du        
   5471 ****        32.0000  22.5000  58.2500 Du        
   5472 ****        32.0000  22.5000  58.5000 Du        
   5473 ****        32.0000  22.5000  58.7500 Du        
   5474 ****        32.0000  22.5000  59.0000 Du        
   5475 ****        32.0000  22.5000  59.2500 Du        
   5476 ****        32.0000  22.7500  58.2500 Du        
   5477 ****        32.0000  22.7500  58.5000 Du        
   5478 ****        32.0000  22.7500  58.7500 Du        
   5479 ****        32.0000  22.7500  59.0000 Du        
   5480 ****        32.0000  22.7500  59.2500 Du        
   5481 ****        32.0000  23.0000  58.5000 Du        
   5482 ****        32.0000  23.0000  58.7500 Du        
   5483 ****        32.0000  23.0000  59.0000 Du        
   5484 ****        32.0000  23.0000  59.2500 Du        
   5485 ****        32.0000  23.2500  58.5000 Du        
   5486 ****        32.0000  23.2500  58.7500 Du        
   5487 ****        32.0000  23.2500  59.0000 Du        
   5488 ****        32.0000  23.2500  59.2500 Du        
   5489 ****        32.0000  23.5000  58.7500 Du        
   5490 ****        32.0000  23.5000  59.0000 Du        
   5491 ****        32.0000  23.5000  59.2500 Du        
   5492 ****        32.0000  23.7500  58.7500 Du        
   5493 ****        32.0000  23.7500  59.0000 Du        
   5494 ****        32.0000  23.7500  59.2500 Du        
   5495 ****        32.0000  24.0000  58.7500 Du        
   5496 ****        32.0000  24.0000  59.0000 Du        
   5497 ****        32.0000  24.0000  59.2500 Du        
   5498 ****        32.0000  24.2500  59.0000 Du        
   5499 ****        32.0000  24.2500  59.2500 Du        
   5500 ****        32.2500  12.2500  55.5000 Du        
   5501 ****        32.2500  12.2500  55.7500 Du        
   5502 ****        32.2500  12.2500  56.0000 Du        
   5503 ****        32.2500  12.2500  56.2500 Du        
   5504 ****        32.2500  12.5000  53.7500 Du        
   5505 ****        32.2500  12.5000  54.0000 Du        
   5506 ****        32.2500  12.5000  54.2500 Du        
   5507 ****        32.2500  12.5000  54.5000 Du        
   5508 ****        32.2500  12.5000  54.7500 Du        
   5509 ****        32.2500  12.5000  55.0000 Du        
   5510 ****        32.2500  12.5000  55.2500 Du        
   5511 ****        32.2500  12.5000  55.5000 Du        
   5512 ****        32.2500  12.5000  55.7500 Du        
   5513 ****        32.2500  12.5000  56.0000 Du        
   5514 ****        32.2500  12.5000  56.2500 Du        
   5515 ****        32.2500  12.5000  56.5000 Du        
   5516 ****        32.2500  12.7500  53.5000 Du        
   5517 ****        32.2500  12.7500  53.7500 Du        
   5518 ****        32.2500  12.7500  54.0000 Du        
   5519 ****        32.2500  12.7500  54.2500 Du        
   5520 ****        32.2500  12.7500  54.5000 Du        
   5521 ****        32.2500  12.7500  54.7500 Du        
   5522 ****        32.2500  12.7500  55.0000 Du        
   5523 ****        32.2500  12.7500  55.2500 Du        
   5524 ****        32.2500  12.7500  55.5000 Du        
   5525 ****        32.2500  12.7500  55.7500 Du        
   5526 ****        32.2500  12.7500  56.0000 Du        
   5527 ****        32.2500  12.7500  56.2500 Du        
   5528 ****        32.2500  12.7500  56.5000 Du        
   5529 ****        32.2500  12.7500  56.7500 Du        
   5530 ****        32.2500  12.7500  57.0000 Du        
   5531 ****        32.2500  13.0000  55.0000 Du        
   5532 ****        32.2500  13.0000  55.2500 Du        
   5533 ****        32.2500  13.0000  55.5000 Du        
   5534 ****        32.2500  13.0000  55.7500 Du        
   5535 ****        32.2500  13.0000  56.0000 Du        
   5536 ****        32.2500  13.0000  56.2500 Du        
   5537 ****        32.2500  13.0000  56.5000 Du        
   5538 ****        32.2500  13.0000  56.7500 Du        
   5539 ****        32.2500  13.0000  57.0000 Du        
   5540 ****        32.2500  13.0000  57.2500 Du        
   5541 ****        32.2500  13.2500  55.5000 Du        
   5542 ****        32.2500  13.2500  55.7500 Du        
   5543 ****        32.2500  13.2500  56.0000 Du        
   5544 ****        32.2500  13.2500  56.2500 Du        
   5545 ****        32.2500  13.2500  56.5000 Du        
   5546 ****        32.2500  13.2500  56.7500 Du        
   5547 ****        32.2500  13.2500  57.0000 Du        
   5548 ****        32.2500  13.2500  57.2500 Du        
   5549 ****        32.2500  13.2500  57.5000 Du        
   5550 ****        32.2500  13.5000  56.0000 Du        
   5551 ****        32.2500  13.5000  56.2500 Du        
   5552 ****        32.2500  13.5000  56.5000 Du        
   5553 ****        32.2500  13.5000  56.7500 Du        
   5554 ****        32.2500  13.5000  57.0000 Du        
   5555 ****        32.2500  13.5000  57.2500 Du        
   5556 ****        32.2500  13.5000  57.5000 Du        
   5557 ****        32.2500  13.7500  56.5000 Du        
   5558 ****        32.2500  13.7500  56.7500 Du        
   5559 ****        32.2500  13.7500  57.0000 Du        
   5560 ****        32.2500  13.7500  57.2500 Du        
   5561 ****        32.2500  13.7500  57.5000 Du        
   5562 ****        32.2500  13.7500  57.7500 Du        
   5563 ****        32.2500  14.0000  56.7500 Du        
   5564 ****        32.2500  14.0000  57.0000 Du        
   5565 ****        32.2500  14.0000  57.2500 Du        
   5566 ****        32.2500  14.0000  57.5000 Du        
   5567 ****        32.2500  14.0000  57.7500 Du        
   5568 ****        32.2500  14.2500  57.0000 Du        
   5569 ****        32.2500  14.2500  57.2500 Du        
   5570 ****        32.2500  14.2500  57.5000 Du        
   5571 ****        32.2500  14.2500  57.7500 Du        
   5572 ****        32.2500  14.5000  57.2500 Du        
   5573 ****        32.2500  14.5000  57.5000 Du        
   5574 ****        32.2500  14.5000  57.7500 Du        
   5575 ****        32.2500  14.7500  57.2500 Du        
   5576 ****        32.2500  14.7500  57.5000 Du        
   5577 ****        32.2500  14.7500  57.7500 Du        
   5578 ****        32.2500  15.0000  57.5000 Du        
   5579 ****        32.2500  15.0000  57.7500 Du        
   5580 ****        32.2500  15.2500  57.5000 Du        
   5581 ****        32.2500  15.2500  57.7500 Du        
   5582 ****        32.2500  15.5000  57.5000 Du        
   5583 ****        32.2500  15.5000  57.7500 Du        
   5584 ****        32.2500  15.7500  57.5000 Du        
   5585 ****        32.2500  15.7500  57.7500 Du        
   5586 ****        32.2500  16.0000  57.5000 Du        
   5587 ****        32.2500  16.0000  57.7500 Du        
   5588 ****        32.2500  16.2500  57.5000 Du        
   5589 ****        32.2500  16.2500  57.7500 Du        
   5590 ****        32.2500  16.5000  57.7500 Du        
   5591 ****        32.2500  16.7500  57.7500 Du        
   5592 ****        32.2500  16.7500  58.0000 Du        
   5593 ****        32.2500  17.0000  57.7500 Du        
   5594 ****        32.2500  17.0000  58.0000 Du        
   5595 ****        32.2500  17.2500  57.2500 Du        
   5596 ****        32.2500  17.2500  57.5000 Du        
   5597 ****        32.2500  17.2500  57.7500 Du        
   5598 ****        32.2500  17.2500  58.0000 Du        
   5599 ****        32.2500  17.5000  57.2500 Du        
   5600 ****        32.2500  17.5000  57.5000 Du        
   5601 ****        32.2500  17.5000  57.7500 Du        
   5602 ****        32.2500  17.5000  58.0000 Du        
   5603 ****        32.2500  17.5000  58.2500 Du        
   5604 ****        32.2500  17.7500  57.2500 Du        
   5605 ****        32.2500  17.7500  57.5000 Du        
   5606 ****        32.2500  17.7500  57.7500 Du        
   5607 ****        32.2500  17.7500  58.0000 Du        
   5608 ****        32.2500  17.7500  58.2500 Du        
   5609 ****        32.2500  17.7500  58.5000 Du        
   5610 ****        32.2500  18.0000  57.2500 Du        
   5611 ****        32.2500  18.0000  57.5000 Du        
   5612 ****        32.2500  18.0000  57.7500 Du        
   5613 ****        32.2500  18.0000  58.0000 Du        
   5614 ****        32.2500  18.0000  58.2500 Du        
   5615 ****        32.2500  18.0000  58.5000 Du        
   5616 ****        32.2500  18.2500  57.2500 Du        
   5617 ****        32.2500  18.2500  57.5000 Du        
   5618 ****        32.2500  18.2500  57.7500 Du        
   5619 ****        32.2500  18.2500  58.0000 Du        
   5620 ****        32.2500  18.2500  58.2500 Du        
   5621 ****        32.2500  18.2500  58.5000 Du        
   5622 ****        32.2500  18.2500  58.7500 Du        
   5623 ****        32.2500  18.2500  59.0000 Du        
   5624 ****        32.2500  18.5000  57.2500 Du        
   5625 ****        32.2500  18.5000  57.5000 Du        
   5626 ****        32.2500  18.5000  57.7500 Du        
   5627 ****        32.2500  18.5000  58.0000 Du        
   5628 ****        32.2500  18.5000  58.2500 Du        
   5629 ****        32.2500  18.5000  58.5000 Du        
   5630 ****        32.2500  18.5000  58.7500 Du        
   5631 ****        32.2500  18.5000  59.0000 Du        
   5632 ****        32.2500  18.7500  57.0000 Du        
   5633 ****        32.2500  18.7500  57.2500 Du        
   5634 ****        32.2500  18.7500  57.5000 Du        
   5635 ****        32.2500  18.7500  57.7500 Du        
   5636 ****        32.2500  18.7500  58.0000 Du        
   5637 ****        32.2500  18.7500  58.2500 Du        
   5638 ****        32.2500  18.7500  58.5000 Du        
   5639 ****        32.2500  18.7500  58.7500 Du        
   5640 ****        32.2500  18.7500  59.0000 Du        
   5641 ****        32.2500  18.7500  59.2500 Du        
   5642 ****        32.2500  18.7500  59.5000 Du        
   5643 ****        32.2500  19.0000  57.0000 Du        
   5644 ****        32.2500  19.0000  57.2500 Du        
   5645 ****        32.2500  19.0000  57.5000 Du        
   5646 ****        32.2500  19.0000  57.7500 Du        
   5647 ****        32.2500  19.0000  58.0000 Du        
   5648 ****        32.2500  19.0000  58.2500 Du        
   5649 ****        32.2500  19.0000  58.5000 Du        
   5650 ****        32.2500  19.0000  58.7500 Du        
   5651 ****        32.2500  19.0000  59.0000 Du        
   5652 ****        32.2500  19.0000  59.2500 Du        
   5653 ****        32.2500  19.0000  59.5000 Du        
   5654 ****        32.2500  19.0000  59.7500 Du        
   5655 ****        32.2500  19.2500  57.0000 Du        
   5656 ****        32.2500  19.2500  57.2500 Du        
   5657 ****        32.2500  19.2500  57.5000 Du        
   5658 ****        32.2500  19.2500  57.7500 Du        
   5659 ****        32.2500  19.2500  58.0000 Du        
   5660 ****        32.2500  19.2500  58.2500 Du        
   5661 ****        32.2500  19.2500  58.5000 Du        
   5662 ****        32.2500  19.2500  58.7500 Du        
   5663 ****        32.2500  19.2500  59.0000 Du        
   5664 ****        32.2500  19.2500  59.2500 Du        
   5665 ****        32.2500  19.2500  59.5000 Du        
   5666 ****        32.2500  19.2500  59.7500 Du        
   5667 ****        32.2500  19.5000  57.0000 Du        
   5668 ****        32.2500  19.5000  57.2500 Du        
   5669 ****        32.2500  19.5000  57.5000 Du        
   5670 ****        32.2500  19.5000  57.7500 Du        
   5671 ****        32.2500  19.5000  58.0000 Du        
   5672 ****        32.2500  19.5000  58.2500 Du        
   5673 ****        32.2500  19.5000  58.5000 Du        
   5674 ****        32.2500  19.5000  58.7500 Du        
   5675 ****        32.2500  19.5000  59.0000 Du        
   5676 ****        32.2500  19.5000  59.2500 Du        
   5677 ****        32.2500  19.5000  59.5000 Du        
   5678 ****        32.2500  19.7500  57.2500 Du        
   5679 ****        32.2500  19.7500  57.5000 Du        
   5680 ****        32.2500  19.7500  57.7500 Du        
   5681 ****        32.2500  19.7500  58.0000 Du        
   5682 ****        32.2500  19.7500  58.2500 Du        
   5683 ****        32.2500  19.7500  58.5000 Du        
   5684 ****        32.2500  19.7500  58.7500 Du        
   5685 ****        32.2500  19.7500  59.0000 Du        
   5686 ****        32.2500  19.7500  59.2500 Du        
   5687 ****        32.2500  19.7500  59.5000 Du        
   5688 ****        32.2500  20.0000  57.2500 Du        
   5689 ****        32.2500  20.0000  57.5000 Du        
   5690 ****        32.2500  20.0000  57.7500 Du        
   5691 ****        32.2500  20.0000  58.0000 Du        
   5692 ****        32.2500  20.0000  58.2500 Du        
   5693 ****        32.2500  20.0000  58.5000 Du        
   5694 ****        32.2500  20.0000  58.7500 Du        
   5695 ****        32.2500  20.0000  59.0000 Du        
   5696 ****        32.2500  20.0000  59.2500 Du        
   5697 ****        32.2500  20.2500  57.5000 Du        
   5698 ****        32.2500  20.2500  57.7500 Du        
   5699 ****        32.2500  20.2500  58.0000 Du        
   5700 ****        32.2500  20.2500  58.2500 Du        
   5701 ****        32.2500  20.2500  58.5000 Du        
   5702 ****        32.2500  20.2500  58.7500 Du        
   5703 ****        32.2500  20.2500  59.0000 Du        
   5704 ****        32.2500  20.2500  59.2500 Du        
   5705 ****        32.2500  20.5000  57.7500 Du        
   5706 ****        32.2500  20.5000  58.0000 Du        
   5707 ****        32.2500  20.5000  58.2500 Du        
   5708 ****        32.2500  20.5000  58.5000 Du        
   5709 ****        32.2500  20.5000  58.7500 Du        
   5710 ****        32.2500  20.5000  59.0000 Du        
   5711 ****        32.2500  20.5000  59.2500 Du        
   5712 ****        32.2500  20.7500  57.7500 Du        
   5713 ****        32.2500  20.7500  58.0000 Du        
   5714 ****        32.2500  20.7500  58.2500 Du        
   5715 ****        32.2500  20.7500  58.5000 Du        
   5716 ****        32.2500  20.7500  58.7500 Du        
   5717 ****        32.2500  20.7500  59.0000 Du        
   5718 ****        32.2500  20.7500  59.2500 Du        
   5719 ****        32.2500  21.0000  58.0000 Du        
   5720 ****        32.2500  21.0000  58.2500 Du        
   5721 ****        32.2500  21.0000  58.5000 Du        
   5722 ****        32.2500  21.0000  58.7500 Du        
   5723 ****        32.2500  21.0000  59.0000 Du        
   5724 ****        32.2500  21.0000  59.2500 Du        
   5725 ****        32.2500  21.2500  58.0000 Du        
   5726 ****        32.2500  21.2500  58.2500 Du        
   5727 ****        32.2500  21.2500  58.5000 Du        
   5728 ****        32.2500  21.2500  58.7500 Du        
   5729 ****        32.2500  21.2500  59.0000 Du        
   5730 ****        32.2500  21.2500  59.2500 Du        
   5731 ****        32.2500  21.5000  58.2500 Du        
   5732 ****        32.2500  21.5000  58.5000 Du        
   5733 ****        32.2500  21.5000  58.7500 Du        
   5734 ****        32.2500  21.5000  59.0000 Du        
   5735 ****        32.2500  21.5000  59.2500 Du        
   5736 ****        32.2500  21.7500  58.0000 Du        
   5737 ****        32.2500  21.7500  58.2500 Du        
   5738 ****        32.2500  21.7500  58.5000 Du        
   5739 ****        32.2500  21.7500  58.7500 Du        
   5740 ****        32.2500  21.7500  59.0000 Du        
   5741 ****        32.2500  21.7500  59.2500 Du        
   5742 ****        32.2500  22.0000  58.2500 Du        
   5743 ****        32.2500  22.0000  58.5000 Du        
   5744 ****        32.2500  22.0000  58.7500 Du        
   5745 ****        32.2500  22.0000  59.0000 Du        
   5746 ****        32.2500  22.0000  59.2500 Du        
   5747 ****        32.2500  22.2500  58.2500 Du        
   5748 ****        32.2500  22.2500  58.5000 Du        
   5749 ****        32.2500  22.2500  58.7500 Du        
   5750 ****        32.2500  22.2500  59.0000 Du        
   5751 ****        32.2500  22.2500  59.2500 Du        
   5752 ****        32.2500  22.5000  58.2500 Du        
   5753 ****        32.2500  22.5000  58.5000 Du        
   5754 ****        32.2500  22.5000  58.7500 Du        
   5755 ****        32.2500  22.5000  59.0000 Du        
   5756 ****        32.2500  22.5000  59.2500 Du        
   5757 ****        32.2500  22.7500  58.5000 Du        
   5758 ****        32.2500  22.7500  58.7500 Du        
   5759 ****        32.2500  22.7500  59.0000 Du        
   5760 ****        32.2500  22.7500  59.2500 Du        
   5761 ****        32.2500  23.0000  58.7500 Du        
   5762 ****        32.2500  23.0000  59.0000 Du        
   5763 ****        32.2500  23.0000  59.2500 Du        
   5764 ****        32.2500  23.2500  59.0000 Du        
   5765 ****        32.2500  23.2500  59.2500 Du        
   5766 ****        32.2500  23.5000  59.0000 Du        
   5767 ****        32.5000  12.2500  53.7500 Du        
   5768 ****        32.5000  12.2500  54.0000 Du        
   5769 ****        32.5000  12.2500  54.2500 Du        
   5770 ****        32.5000  12.2500  54.5000 Du        
   5771 ****        32.5000  12.2500  54.7500 Du        
   5772 ****        32.5000  12.2500  55.0000 Du        
   5773 ****        32.5000  12.2500  55.2500 Du        
   5774 ****        32.5000  12.2500  55.5000 Du        
   5775 ****        32.5000  12.2500  55.7500 Du        
   5776 ****        32.5000  12.2500  56.0000 Du        
   5777 ****        32.5000  12.2500  56.2500 Du        
   5778 ****        32.5000  12.5000  53.7500 Du        
   5779 ****        32.5000  12.5000  54.0000 Du        
   5780 ****        32.5000  12.5000  54.2500 Du        
   5781 ****        32.5000  12.5000  54.5000 Du        
   5782 ****        32.5000  12.5000  54.7500 Du        
   5783 ****        32.5000  12.5000  55.0000 Du        
   5784 ****        32.5000  12.5000  55.2500 Du        
   5785 ****        32.5000  12.5000  55.5000 Du        
   5786 ****        32.5000  12.5000  55.7500 Du        
   5787 ****        32.5000  12.5000  56.0000 Du        
   5788 ****        32.5000  12.5000  56.2500 Du        
   5789 ****        32.5000  12.5000  56.5000 Du        
   5790 ****        32.5000  12.7500  54.0000 Du        
   5791 ****        32.5000  12.7500  54.2500 Du        
   5792 ****        32.5000  12.7500  54.5000 Du        
   5793 ****        32.5000  12.7500  54.7500 Du        
   5794 ****        32.5000  12.7500  55.0000 Du        
   5795 ****        32.5000  12.7500  55.2500 Du        
   5796 ****        32.5000  12.7500  55.5000 Du        
   5797 ****        32.5000  12.7500  55.7500 Du        
   5798 ****        32.5000  12.7500  56.0000 Du        
   5799 ****        32.5000  12.7500  56.2500 Du        
   5800 ****        32.5000  12.7500  56.5000 Du        
   5801 ****        32.5000  12.7500  56.7500 Du        
   5802 ****        32.5000  13.0000  55.0000 Du        
   5803 ****        32.5000  13.0000  55.2500 Du        
   5804 ****        32.5000  13.0000  55.5000 Du        
   5805 ****        32.5000  13.0000  55.7500 Du        
   5806 ****        32.5000  13.0000  56.0000 Du        
   5807 ****        32.5000  13.0000  56.2500 Du        
   5808 ****        32.5000  13.0000  56.5000 Du        
   5809 ****        32.5000  13.0000  56.7500 Du        
   5810 ****        32.5000  13.0000  57.0000 Du        
   5811 ****        32.5000  13.2500  55.5000 Du        
   5812 ****        32.5000  13.2500  55.7500 Du        
   5813 ****        32.5000  13.2500  56.0000 Du        
   5814 ****        32.5000  13.2500  56.2500 Du        
   5815 ****        32.5000  13.2500  56.5000 Du        
   5816 ****        32.5000  13.2500  56.7500 Du        
   5817 ****        32.5000  13.2500  57.0000 Du        
   5818 ****        32.5000  13.2500  57.2500 Du        
   5819 ****        32.5000  13.5000  56.0000 Du        
   5820 ****        32.5000  13.5000  56.2500 Du        
   5821 ****        32.5000  13.5000  56.5000 Du        
   5822 ****        32.5000  13.5000  56.7500 Du        
   5823 ****        32.5000  13.5000  57.0000 Du        
   5824 ****        32.5000  13.5000  57.2500 Du        
   5825 ****        32.5000  13.5000  57.5000 Du        
   5826 ****        32.5000  13.7500  56.2500 Du        
   5827 ****        32.5000  13.7500  56.5000 Du        
   5828 ****        32.5000  13.7500  56.7500 Du        
   5829 ****        32.5000  13.7500  57.0000 Du        
   5830 ****        32.5000  13.7500  57.2500 Du        
   5831 ****        32.5000  13.7500  57.5000 Du        
   5832 ****        32.5000  14.0000  56.5000 Du        
   5833 ****        32.5000  14.0000  56.7500 Du        
   5834 ****        32.5000  14.0000  57.0000 Du        
   5835 ****        32.5000  14.0000  57.2500 Du        
   5836 ****        32.5000  14.0000  57.5000 Du        
   5837 ****        32.5000  14.2500  56.7500 Du        
   5838 ****        32.5000  14.2500  57.0000 Du        
   5839 ****        32.5000  14.2500  57.2500 Du        
   5840 ****        32.5000  14.2500  57.5000 Du        
   5841 ****        32.5000  14.5000  57.0000 Du        
   5842 ****        32.5000  14.5000  57.2500 Du        
   5843 ****        32.5000  14.5000  57.5000 Du        
   5844 ****        32.5000  14.7500  57.2500 Du        
   5845 ****        32.5000  14.7500  57.5000 Du        
   5846 ****        32.5000  14.7500  57.7500 Du        
   5847 ****        32.5000  15.0000  57.2500 Du        
   5848 ****        32.5000  15.0000  57.5000 Du        
   5849 ****        32.5000  15.0000  57.7500 Du        
   5850 ****        32.5000  15.2500  57.5000 Du        
   5851 ****        32.5000  15.2500  57.7500 Du        
   5852 ****        32.5000  16.0000  57.7500 Du        
   5853 ****        32.5000  17.0000  57.7500 Du        
   5854 ****        32.5000  17.2500  57.2500 Du        
   5855 ****        32.5000  17.2500  57.7500 Du        
   5856 ****        32.5000  17.2500  58.0000 Du        
   5857 ****        32.5000  17.5000  57.2500 Du        
   5858 ****        32.5000  17.5000  57.5000 Du        
   5859 ****        32.5000  17.5000  57.7500 Du        
   5860 ****        32.5000  17.5000  58.0000 Du        
   5861 ****        32.5000  17.7500  57.2500 Du        
   5862 ****        32.5000  17.7500  57.5000 Du        
   5863 ****        32.5000  17.7500  57.7500 Du        
   5864 ****        32.5000  17.7500  58.0000 Du        
   5865 ****        32.5000  17.7500  58.2500 Du        
   5866 ****        32.5000  18.0000  57.2500 Du        
   5867 ****        32.5000  18.0000  57.5000 Du        
   5868 ****        32.5000  18.0000  57.7500 Du        
   5869 ****        32.5000  18.0000  58.0000 Du        
   5870 ****        32.5000  18.0000  58.2500 Du        
   5871 ****        32.5000  18.2500  57.2500 Du        
   5872 ****        32.5000  18.2500  57.5000 Du        
   5873 ****        32.5000  18.2500  57.7500 Du        
   5874 ****        32.5000  18.2500  58.0000 Du        
   5875 ****        32.5000  18.2500  58.2500 Du        
   5876 ****        32.5000  18.2500  58.7500 Du        
   5877 ****        32.5000  18.5000  57.2500 Du        
   5878 ****        32.5000  18.5000  57.5000 Du        
   5879 ****        32.5000  18.5000  57.7500 Du        
   5880 ****        32.5000  18.5000  58.0000 Du        
   5881 ****        32.5000  18.5000  58.2500 Du        
   5882 ****        32.5000  18.5000  58.5000 Du        
   5883 ****        32.5000  18.5000  58.7500 Du        
   5884 ****        32.5000  18.5000  59.0000 Du        
   5885 ****        32.5000  18.7500  57.2500 Du        
   5886 ****        32.5000  18.7500  57.5000 Du        
   5887 ****        32.5000  18.7500  57.7500 Du        
   5888 ****        32.5000  18.7500  58.0000 Du        
   5889 ****        32.5000  18.7500  58.2500 Du        
   5890 ****        32.5000  18.7500  58.5000 Du        
   5891 ****        32.5000  18.7500  58.7500 Du        
   5892 ****        32.5000  18.7500  59.0000 Du        
   5893 ****        32.5000  18.7500  59.2500 Du        
   5894 ****        32.5000  19.0000  57.0000 Du        
   5895 ****        32.5000  19.0000  57.2500 Du        
   5896 ****        32.5000  19.0000  57.5000 Du        
   5897 ****        32.5000  19.0000  57.7500 Du        
   5898 ****        32.5000  19.0000  58.0000 Du        
   5899 ****        32.5000  19.0000  58.2500 Du        
   5900 ****        32.5000  19.0000  58.5000 Du        
   5901 ****        32.5000  19.0000  58.7500 Du        
   5902 ****        32.5000  19.0000  59.0000 Du        
   5903 ****        32.5000  19.0000  59.2500 Du        
   5904 ****        32.5000  19.2500  57.2500 Du        
   5905 ****        32.5000  19.2500  57.5000 Du        
   5906 ****        32.5000  19.2500  57.7500 Du        
   5907 ****        32.5000  19.2500  58.0000 Du        
   5908 ****        32.5000  19.2500  58.2500 Du        
   5909 ****        32.5000  19.2500  58.5000 Du        
   5910 ****        32.5000  19.2500  58.7500 Du        
   5911 ****        32.5000  19.2500  59.0000 Du        
   5912 ****        32.5000  19.2500  59.2500 Du        
   5913 ****        32.5000  19.5000  57.2500 Du        
   5914 ****        32.5000  19.5000  57.5000 Du        
   5915 ****        32.5000  19.5000  57.7500 Du        
   5916 ****        32.5000  19.5000  58.0000 Du        
   5917 ****        32.5000  19.5000  58.2500 Du        
   5918 ****        32.5000  19.5000  58.5000 Du        
   5919 ****        32.5000  19.5000  58.7500 Du        
   5920 ****        32.5000  19.5000  59.0000 Du        
   5921 ****        32.5000  19.5000  59.2500 Du        
   5922 ****        32.5000  19.7500  57.2500 Du        
   5923 ****        32.5000  19.7500  57.5000 Du        
   5924 ****        32.5000  19.7500  57.7500 Du        
   5925 ****        32.5000  19.7500  58.0000 Du        
   5926 ****        32.5000  19.7500  58.2500 Du        
   5927 ****        32.5000  19.7500  58.5000 Du        
   5928 ****        32.5000  19.7500  58.7500 Du        
   5929 ****        32.5000  19.7500  59.0000 Du        
   5930 ****        32.5000  19.7500  59.2500 Du        
   5931 ****        32.5000  20.0000  57.5000 Du        
   5932 ****        32.5000  20.0000  57.7500 Du        
   5933 ****        32.5000  20.0000  58.0000 Du        
   5934 ****        32.5000  20.0000  58.2500 Du        
   5935 ****        32.5000  20.0000  58.5000 Du        
   5936 ****        32.5000  20.0000  58.7500 Du        
   5937 ****        32.5000  20.0000  59.0000 Du        
   5938 ****        32.5000  20.0000  59.2500 Du        
   5939 ****        32.5000  20.2500  57.7500 Du        
   5940 ****        32.5000  20.2500  58.0000 Du        
   5941 ****        32.5000  20.2500  58.2500 Du        
   5942 ****        32.5000  20.2500  58.5000 Du        
   5943 ****        32.5000  20.2500  58.7500 Du        
   5944 ****        32.5000  20.2500  59.0000 Du        
   5945 ****        32.5000  20.2500  59.2500 Du        
   5946 ****        32.5000  20.5000  58.0000 Du        
   5947 ****        32.5000  20.5000  58.2500 Du        
   5948 ****        32.5000  20.5000  58.5000 Du        
   5949 ****        32.5000  20.5000  58.7500 Du        
   5950 ****        32.5000  20.5000  59.0000 Du        
   5951 ****        32.5000  20.7500  58.0000 Du        
   5952 ****        32.5000  20.7500  58.2500 Du        
   5953 ****        32.5000  20.7500  58.5000 Du        
   5954 ****        32.5000  20.7500  58.7500 Du        
   5955 ****        32.5000  20.7500  59.0000 Du        
   5956 ****        32.5000  21.0000  58.0000 Du        
   5957 ****        32.5000  21.0000  58.2500 Du        
   5958 ****        32.5000  21.0000  58.5000 Du        
   5959 ****        32.5000  21.0000  58.7500 Du        
   5960 ****        32.5000  21.0000  59.0000 Du        
   5961 ****        32.5000  21.2500  58.2500 Du        
   5962 ****        32.5000  21.2500  58.5000 Du        
   5963 ****        32.5000  21.2500  58.7500 Du        
   5964 ****        32.5000  21.2500  59.0000 Du        
   5965 ****        32.5000  21.5000  58.5000 Du        
   5966 ****        32.5000  21.5000  58.7500 Du        
   5967 ****        32.5000  21.7500  58.5000 Du        
   5968 ****        32.5000  21.7500  58.7500 Du        
   5969 ****        32.5000  21.7500  59.0000 Du        
   5970 ****        32.5000  22.0000  58.5000 Du        
   5971 ****        32.5000  22.0000  58.7500 Du        
   5972 ****        32.5000  22.0000  59.0000 Du        
   5973 ****        32.5000  22.2500  58.7500 Du        
   5974 ****        32.7500  12.2500  54.0000 Du        
   5975 ****        32.7500  12.2500  54.2500 Du        
   5976 ****        32.7500  12.2500  54.5000 Du        
   5977 ****        32.7500  12.2500  54.7500 Du        
   5978 ****        32.7500  12.2500  55.0000 Du        
   5979 ****        32.7500  12.2500  55.2500 Du        
   5980 ****        32.7500  12.2500  55.5000 Du        
   5981 ****        32.7500  12.2500  55.7500 Du        
   5982 ****        32.7500  12.2500  56.0000 Du        
   5983 ****        32.7500  12.5000  54.0000 Du        
   5984 ****        32.7500  12.5000  54.2500 Du        
   5985 ****        32.7500  12.5000  54.5000 Du        
   5986 ****        32.7500  12.5000  54.7500 Du        
   5987 ****        32.7500  12.5000  55.0000 Du        
   5988 ****        32.7500  12.5000  55.2500 Du        
   5989 ****        32.7500  12.5000  55.5000 Du        
   5990 ****        32.7500  12.5000  55.7500 Du        
   5991 ****        32.7500  12.5000  56.0000 Du        
   5992 ****        32.7500  12.5000  56.2500 Du        
   5993 ****        32.7500  12.5000  56.5000 Du        
   5994 ****        32.7500  12.7500  54.2500 Du        
   5995 ****        32.7500  12.7500  54.5000 Du        
   5996 ****        32.7500  12.7500  54.7500 Du        
   5997 ****        32.7500  12.7500  55.0000 Du        
   5998 ****        32.7500  12.7500  55.2500 Du        
   5999 ****        32.7500  12.7500  55.5000 Du        
   6000 ****        32.7500  12.7500  55.7500 Du        
   6001 ****        32.7500  12.7500  56.0000 Du        
   6002 ****        32.7500  12.7500  56.2500 Du        
   6003 ****        32.7500  12.7500  56.5000 Du        
   6004 ****        32.7500  12.7500  56.7500 Du        
   6005 ****        32.7500  13.0000  55.0000 Du        
   6006 ****        32.7500  13.0000  55.2500 Du        
   6007 ****        32.7500  13.0000  55.5000 Du        
   6008 ****        32.7500  13.0000  55.7500 Du        
   6009 ****        32.7500  13.0000  56.0000 Du        
   6010 ****        32.7500  13.0000  56.2500 Du        
   6011 ****        32.7500  13.0000  56.5000 Du        
   6012 ****        32.7500  13.0000  56.7500 Du        
   6013 ****        32.7500  13.0000  57.0000 Du        
   6014 ****        32.7500  13.2500  55.5000 Du        
   6015 ****        32.7500  13.2500  55.7500 Du        
   6016 ****        32.7500  13.2500  56.0000 Du        
   6017 ****        32.7500  13.2500  56.2500 Du        
   6018 ****        32.7500  13.2500  56.5000 Du        
   6019 ****        32.7500  13.2500  56.7500 Du        
   6020 ****        32.7500  13.2500  57.0000 Du        
   6021 ****        32.7500  13.2500  57.2500 Du        
   6022 ****        32.7500  13.5000  56.0000 Du        
   6023 ****        32.7500  13.5000  56.2500 Du        
   6024 ****        32.7500  13.5000  56.5000 Du        
   6025 ****        32.7500  13.5000  56.7500 Du        
   6026 ****        32.7500  13.5000  57.0000 Du        
   6027 ****        32.7500  13.5000  57.2500 Du        
   6028 ****        32.7500  13.7500  56.2500 Du        
   6029 ****        32.7500  13.7500  56.5000 Du        
   6030 ****        32.7500  13.7500  56.7500 Du        
   6031 ****        32.7500  13.7500  57.0000 Du        
   6032 ****        32.7500  13.7500  57.2500 Du        
   6033 ****        32.7500  13.7500  57.5000 Du        
   6034 ****        32.7500  14.0000  56.5000 Du        
   6035 ****        32.7500  14.0000  56.7500 Du        
   6036 ****        32.7500  14.0000  57.0000 Du        
   6037 ****        32.7500  14.0000  57.2500 Du        
   6038 ****        32.7500  14.0000  57.5000 Du        
   6039 ****        32.7500  14.2500  56.7500 Du        
   6040 ****        32.7500  14.2500  57.0000 Du        
   6041 ****        32.7500  14.2500  57.2500 Du        
   6042 ****        32.7500  14.2500  57.5000 Du        
   6043 ****        32.7500  14.5000  57.0000 Du        
   6044 ****        32.7500  14.5000  57.2500 Du        
   6045 ****        32.7500  14.5000  57.5000 Du        
   6046 ****        32.7500  14.7500  57.0000 Du        
   6047 ****        32.7500  14.7500  57.2500 Du        
   6048 ****        32.7500  14.7500  57.5000 Du        
   6049 ****        32.7500  15.0000  57.2500 Du        
   6050 ****        32.7500  15.0000  57.5000 Du        
   6051 ****        32.7500  15.0000  57.7500 Du        
   6052 ****        32.7500  15.2500  57.2500 Du        
   6053 ****        32.7500  15.2500  57.5000 Du        
   6054 ****        32.7500  15.2500  57.7500 Du        
   6055 ****        32.7500  15.5000  57.5000 Du        
   6056 ****        32.7500  15.5000  57.7500 Du        
   6057 ****        32.7500  15.7500  57.5000 Du        
   6058 ****        32.7500  15.7500  57.7500 Du        
   6059 ****        32.7500  16.0000  57.5000 Du        
   6060 ****        32.7500  16.0000  57.7500 Du        
   6061 ****        32.7500  16.2500  57.5000 Du        
   6062 ****        32.7500  16.2500  57.7500 Du        
   6063 ****        32.7500  16.5000  57.5000 Du        
   6064 ****        32.7500  16.5000  57.7500 Du        
   6065 ****        32.7500  16.7500  57.2500 Du        
   6066 ****        32.7500  16.7500  57.5000 Du        
   6067 ****        32.7500  16.7500  57.7500 Du        
   6068 ****        32.7500  16.7500  58.0000 Du        
   6069 ****        32.7500  17.0000  57.2500 Du        
   6070 ****        32.7500  17.0000  57.5000 Du        
   6071 ****        32.7500  17.0000  57.7500 Du        
   6072 ****        32.7500  17.0000  58.0000 Du        
   6073 ****        32.7500  17.2500  57.2500 Du        
   6074 ****        32.7500  17.2500  57.5000 Du        
   6075 ****        32.7500  17.2500  57.7500 Du        
   6076 ****        32.7500  17.2500  58.0000 Du        
   6077 ****        32.7500  17.5000  57.2500 Du        
   6078 ****        32.7500  17.5000  57.5000 Du        
   6079 ****        32.7500  17.5000  57.7500 Du        
   6080 ****        32.7500  17.5000  58.0000 Du        
   6081 ****        32.7500  17.7500  57.2500 Du        
   6082 ****        32.7500  17.7500  57.5000 Du        
   6083 ****        32.7500  17.7500  57.7500 Du        
   6084 ****        32.7500  17.7500  58.0000 Du        
   6085 ****        32.7500  17.7500  58.2500 Du        
   6086 ****        32.7500  18.0000  57.2500 Du        
   6087 ****        32.7500  18.0000  57.5000 Du        
   6088 ****        32.7500  18.0000  57.7500 Du        
   6089 ****        32.7500  18.0000  58.0000 Du        
   6090 ****        32.7500  18.0000  58.2500 Du        
   6091 ****        32.7500  18.0000  58.5000 Du        
   6092 ****        32.7500  18.2500  57.2500 Du        
   6093 ****        32.7500  18.2500  57.5000 Du        
   6094 ****        32.7500  18.2500  57.7500 Du        
   6095 ****        32.7500  18.2500  58.0000 Du        
   6096 ****        32.7500  18.2500  58.2500 Du        
   6097 ****        32.7500  18.2500  58.5000 Du        
   6098 ****        32.7500  18.2500  58.7500 Du        
   6099 ****        32.7500  18.2500  59.0000 Du        
   6100 ****        32.7500  18.5000  57.2500 Du        
   6101 ****        32.7500  18.5000  57.5000 Du        
   6102 ****        32.7500  18.5000  57.7500 Du        
   6103 ****        32.7500  18.5000  58.0000 Du        
   6104 ****        32.7500  18.5000  58.2500 Du        
   6105 ****        32.7500  18.5000  58.5000 Du        
   6106 ****        32.7500  18.5000  58.7500 Du        
   6107 ****        32.7500  18.5000  59.0000 Du        
   6108 ****        32.7500  18.7500  57.0000 Du        
   6109 ****        32.7500  18.7500  57.2500 Du        
   6110 ****        32.7500  18.7500  57.5000 Du        
   6111 ****        32.7500  18.7500  57.7500 Du        
   6112 ****        32.7500  18.7500  58.0000 Du        
   6113 ****        32.7500  18.7500  58.2500 Du        
   6114 ****        32.7500  18.7500  58.5000 Du        
   6115 ****        32.7500  18.7500  58.7500 Du        
   6116 ****        32.7500  18.7500  59.0000 Du        
   6117 ****        32.7500  18.7500  59.2500 Du        
   6118 ****        32.7500  19.0000  57.0000 Du        
   6119 ****        32.7500  19.0000  57.2500 Du        
   6120 ****        32.7500  19.0000  57.5000 Du        
   6121 ****        32.7500  19.0000  57.7500 Du        
   6122 ****        32.7500  19.0000  58.0000 Du        
   6123 ****        32.7500  19.0000  58.2500 Du        
   6124 ****        32.7500  19.0000  58.5000 Du        
   6125 ****        32.7500  19.0000  58.7500 Du        
   6126 ****        32.7500  19.0000  59.0000 Du        
   6127 ****        32.7500  19.0000  59.2500 Du        
   6128 ****        32.7500  19.0000  59.5000 Du        
   6129 ****        32.7500  19.2500  57.2500 Du        
   6130 ****        32.7500  19.2500  57.5000 Du        
   6131 ****        32.7500  19.2500  57.7500 Du        
   6132 ****        32.7500  19.2500  58.0000 Du        
   6133 ****        32.7500  19.2500  58.2500 Du        
   6134 ****        32.7500  19.2500  58.5000 Du        
   6135 ****        32.7500  19.2500  58.7500 Du        
   6136 ****        32.7500  19.2500  59.0000 Du        
   6137 ****        32.7500  19.2500  59.2500 Du        
   6138 ****        32.7500  19.2500  59.7500 Du        
   6139 ****        32.7500  19.5000  57.2500 Du        
   6140 ****        32.7500  19.5000  57.5000 Du        
   6141 ****        32.7500  19.5000  57.7500 Du        
   6142 ****        32.7500  19.5000  58.0000 Du        
   6143 ****        32.7500  19.5000  58.2500 Du        
   6144 ****        32.7500  19.5000  58.5000 Du        
   6145 ****        32.7500  19.5000  58.7500 Du        
   6146 ****        32.7500  19.5000  59.0000 Du        
   6147 ****        32.7500  19.5000  59.2500 Du        
   6148 ****        32.7500  19.5000  59.5000 Du        
   6149 ****        32.7500  19.7500  57.2500 Du        
   6150 ****        32.7500  19.7500  57.5000 Du        
   6151 ****        32.7500  19.7500  57.7500 Du        
   6152 ****        32.7500  19.7500  58.0000 Du        
   6153 ****        32.7500  19.7500  58.2500 Du        
   6154 ****        32.7500  19.7500  58.5000 Du        
   6155 ****        32.7500  19.7500  58.7500 Du        
   6156 ****        32.7500  19.7500  59.0000 Du        
   6157 ****        32.7500  19.7500  59.2500 Du        
   6158 ****        32.7500  20.0000  57.5000 Du        
   6159 ****        32.7500  20.0000  57.7500 Du        
   6160 ****        32.7500  20.0000  58.0000 Du        
   6161 ****        32.7500  20.0000  58.2500 Du        
   6162 ****        32.7500  20.0000  58.5000 Du        
   6163 ****        32.7500  20.0000  58.7500 Du        
   6164 ****        32.7500  20.0000  59.0000 Du        
   6165 ****        32.7500  20.0000  59.2500 Du        
   6166 ****        32.7500  20.2500  57.7500 Du        
   6167 ****        32.7500  20.2500  58.0000 Du        
   6168 ****        32.7500  20.2500  58.2500 Du        
   6169 ****        32.7500  20.2500  58.5000 Du        
   6170 ****        32.7500  20.2500  58.7500 Du        
   6171 ****        32.7500  20.2500  59.0000 Du        
   6172 ****        32.7500  20.2500  59.2500 Du        
   6173 ****        32.7500  20.5000  58.0000 Du        
   6174 ****        32.7500  20.5000  58.2500 Du        
   6175 ****        32.7500  20.5000  58.5000 Du        
   6176 ****        32.7500  20.5000  58.7500 Du        
   6177 ****        32.7500  20.5000  59.0000 Du        
   6178 ****        32.7500  20.5000  59.2500 Du        
   6179 ****        32.7500  20.7500  58.0000 Du        
   6180 ****        32.7500  20.7500  58.2500 Du        
   6181 ****        32.7500  20.7500  58.5000 Du        
   6182 ****        32.7500  20.7500  58.7500 Du        
   6183 ****        32.7500  20.7500  59.0000 Du        
   6184 ****        32.7500  20.7500  59.2500 Du        
   6185 ****        32.7500  21.0000  58.0000 Du        
   6186 ****        32.7500  21.0000  58.2500 Du        
   6187 ****        32.7500  21.0000  58.5000 Du        
   6188 ****        32.7500  21.0000  58.7500 Du        
   6189 ****        32.7500  21.0000  59.0000 Du        
   6190 ****        32.7500  21.0000  59.2500 Du        
   6191 ****        32.7500  21.2500  58.2500 Du        
   6192 ****        32.7500  21.2500  58.5000 Du        
   6193 ****        32.7500  21.2500  58.7500 Du        
   6194 ****        32.7500  21.2500  59.0000 Du        
   6195 ****        32.7500  21.2500  59.2500 Du        
   6196 ****        32.7500  21.5000  58.2500 Du        
   6197 ****        32.7500  21.5000  58.5000 Du        
   6198 ****        32.7500  21.5000  58.7500 Du        
   6199 ****        32.7500  21.5000  59.0000 Du        
   6200 ****        32.7500  21.7500  58.5000 Du        
   6201 ****        32.7500  21.7500  58.7500 Du        
   6202 ****        32.7500  22.0000  58.5000 Du        
   6203 ****        32.7500  22.0000  58.7500 Du        
   6204 ****        32.7500  22.0000  59.0000 Du        
   6205 ****        32.7500  22.2500  58.7500 Du        
   6206 ****        32.7500  22.2500  59.0000 Du        
   6207 ****        33.0000  12.2500  54.5000 Du        
   6208 ****        33.0000  12.2500  54.7500 Du        
   6209 ****        33.0000  12.2500  55.0000 Du        
   6210 ****        33.0000  12.2500  55.2500 Du        
   6211 ****        33.0000  12.2500  55.5000 Du        
   6212 ****        33.0000  12.2500  55.7500 Du        
   6213 ****        33.0000  12.2500  56.0000 Du        
   6214 ****        33.0000  12.5000  54.5000 Du        
   6215 ****        33.0000  12.5000  54.7500 Du        
   6216 ****        33.0000  12.5000  55.0000 Du        
   6217 ****        33.0000  12.5000  55.2500 Du        
   6218 ****        33.0000  12.5000  55.5000 Du        
   6219 ****        33.0000  12.5000  55.7500 Du        
   6220 ****        33.0000  12.5000  56.0000 Du        
   6221 ****        33.0000  12.5000  56.2500 Du        
   6222 ****        33.0000  12.7500  54.7500 Du        
   6223 ****        33.0000  12.7500  55.0000 Du        
   6224 ****        33.0000  12.7500  55.2500 Du        
   6225 ****        33.0000  12.7500  55.5000 Du        
   6226 ****        33.0000  12.7500  55.7500 Du        
   6227 ****        33.0000  12.7500  56.0000 Du        
   6228 ****        33.0000  12.7500  56.2500 Du        
   6229 ****        33.0000  12.7500  56.5000 Du        
   6230 ****        33.0000  12.7500  56.7500 Du        
   6231 ****        33.0000  13.0000  55.2500 Du        
   6232 ****        33.0000  13.0000  55.5000 Du        
   6233 ****        33.0000  13.0000  55.7500 Du        
   6234 ****        33.0000  13.0000  56.0000 Du        
   6235 ****        33.0000  13.0000  56.2500 Du        
   6236 ****        33.0000  13.0000  56.5000 Du        
   6237 ****        33.0000  13.0000  56.7500 Du        
   6238 ****        33.0000  13.0000  57.0000 Du        
   6239 ****        33.0000  13.2500  55.7500 Du        
   6240 ****        33.0000  13.2500  56.0000 Du        
   6241 ****        33.0000  13.2500  56.2500 Du        
   6242 ****        33.0000  13.2500  56.5000 Du        
   6243 ****        33.0000  13.2500  56.7500 Du        
   6244 ****        33.0000  13.2500  57.0000 Du        
   6245 ****        33.0000  13.5000  56.0000 Du        
   6246 ****        33.0000  13.5000  56.2500 Du        
   6247 ****        33.0000  13.5000  56.5000 Du        
   6248 ****        33.0000  13.5000  56.7500 Du        
   6249 ****        33.0000  13.5000  57.0000 Du        
   6250 ****        33.0000  13.5000  57.2500 Du        
   6251 ****        33.0000  13.7500  56.2500 Du        
   6252 ****        33.0000  13.7500  56.5000 Du        
   6253 ****        33.0000  13.7500  56.7500 Du        
   6254 ****        33.0000  13.7500  57.0000 Du        
   6255 ****        33.0000  13.7500  57.2500 Du        
   6256 ****        33.0000  13.7500  57.5000 Du        
   6257 ****        33.0000  14.0000  56.5000 Du        
   6258 ****        33.0000  14.0000  56.7500 Du        
   6259 ****        33.0000  14.0000  57.0000 Du        
   6260 ****        33.0000  14.0000  57.2500 Du        
   6261 ****        33.0000  14.0000  57.5000 Du        
   6262 ****        33.0000  14.2500  56.7500 Du        
   6263 ****        33.0000  14.2500  57.0000 Du        
   6264 ****        33.0000  14.2500  57.2500 Du        
   6265 ****        33.0000  14.2500  57.5000 Du        
   6266 ****        33.0000  14.5000  56.7500 Du        
   6267 ****        33.0000  14.5000  57.0000 Du        
   6268 ****        33.0000  14.5000  57.2500 Du        
   6269 ****        33.0000  14.5000  57.5000 Du        
   6270 ****        33.0000  14.7500  57.0000 Du        
   6271 ****        33.0000  14.7500  57.2500 Du        
   6272 ****        33.0000  14.7500  57.5000 Du        
   6273 ****        33.0000  15.0000  57.0000 Du        
   6274 ****        33.0000  15.0000  57.2500 Du        
   6275 ****        33.0000  15.0000  57.5000 Du        
   6276 ****        33.0000  15.0000  57.7500 Du        
   6277 ****        33.0000  15.2500  57.2500 Du        
   6278 ****        33.0000  15.2500  57.5000 Du        
   6279 ****        33.0000  15.2500  57.7500 Du        
   6280 ****        33.0000  15.5000  57.5000 Du        
   6281 ****        33.0000  15.5000  57.7500 Du        
   6282 ****        33.0000  15.7500  57.2500 Du        
   6283 ****        33.0000  15.7500  57.5000 Du        
   6284 ****        33.0000  15.7500  57.7500 Du        
   6285 ****        33.0000  16.0000  57.5000 Du        
   6286 ****        33.0000  16.0000  57.7500 Du        
   6287 ****        33.0000  16.2500  57.5000 Du        
   6288 ****        33.0000  16.2500  57.7500 Du        
   6289 ****        33.0000  16.2500  58.0000 Du        
   6290 ****        33.0000  16.5000  57.5000 Du        
   6291 ****        33.0000  16.5000  57.7500 Du        
   6292 ****        33.0000  16.7500  57.5000 Du        
   6293 ****        33.0000  16.7500  57.7500 Du        
   6294 ****        33.0000  16.7500  58.0000 Du        
   6295 ****        33.0000  17.0000  57.2500 Du        
   6296 ****        33.0000  17.0000  57.5000 Du        
   6297 ****        33.0000  17.0000  57.7500 Du        
   6298 ****        33.0000  17.0000  58.0000 Du        
   6299 ****        33.0000  17.2500  57.2500 Du        
   6300 ****        33.0000  17.2500  57.5000 Du        
   6301 ****        33.0000  17.2500  57.7500 Du        
   6302 ****        33.0000  17.2500  58.0000 Du        
   6303 ****        33.0000  17.2500  58.2500 Du        
   6304 ****        33.0000  17.5000  57.2500 Du        
   6305 ****        33.0000  17.5000  57.5000 Du        
   6306 ****        33.0000  17.5000  57.7500 Du        
   6307 ****        33.0000  17.5000  58.0000 Du        
   6308 ****        33.0000  17.5000  58.2500 Du        
   6309 ****        33.0000  17.7500  57.2500 Du        
   6310 ****        33.0000  17.7500  57.5000 Du        
   6311 ****        33.0000  17.7500  57.7500 Du        
   6312 ****        33.0000  17.7500  58.0000 Du        
   6313 ****        33.0000  17.7500  58.2500 Du        
   6314 ****        33.0000  17.7500  58.5000 Du        
   6315 ****        33.0000  18.0000  57.2500 Du        
   6316 ****        33.0000  18.0000  57.5000 Du        
   6317 ****        33.0000  18.0000  57.7500 Du        
   6318 ****        33.0000  18.0000  58.0000 Du        
   6319 ****        33.0000  18.0000  58.2500 Du        
   6320 ****        33.0000  18.0000  58.5000 Du        
   6321 ****        33.0000  18.0000  58.7500 Du        
   6322 ****        33.0000  18.2500  57.2500 Du        
   6323 ****        33.0000  18.2500  57.5000 Du        
   6324 ****        33.0000  18.2500  57.7500 Du        
   6325 ****        33.0000  18.2500  58.0000 Du        
   6326 ****        33.0000  18.2500  58.2500 Du        
   6327 ****        33.0000  18.2500  58.5000 Du        
   6328 ****        33.0000  18.2500  58.7500 Du        
   6329 ****        33.0000  18.2500  59.0000 Du        
   6330 ****        33.0000  18.2500  59.2500 Du        
   6331 ****        33.0000  18.5000  57.2500 Du        
   6332 ****        33.0000  18.5000  57.5000 Du        
   6333 ****        33.0000  18.5000  57.7500 Du        
   6334 ****        33.0000  18.5000  58.0000 Du        
   6335 ****        33.0000  18.5000  58.2500 Du        
   6336 ****        33.0000  18.5000  58.5000 Du        
   6337 ****        33.0000  18.5000  58.7500 Du        
   6338 ****        33.0000  18.5000  59.0000 Du        
   6339 ****        33.0000  18.7500  57.2500 Du        
   6340 ****        33.0000  18.7500  57.5000 Du        
   6341 ****        33.0000  18.7500  57.7500 Du        
   6342 ****        33.0000  18.7500  58.0000 Du        
   6343 ****        33.0000  18.7500  58.2500 Du        
   6344 ****        33.0000  18.7500  58.5000 Du        
   6345 ****        33.0000  18.7500  58.7500 Du        
   6346 ****        33.0000  18.7500  59.0000 Du        
   6347 ****        33.0000  18.7500  59.2500 Du        
   6348 ****        33.0000  18.7500  59.5000 Du        
   6349 ****        33.0000  18.7500  59.7500 Du        
   6350 ****        33.0000  19.0000  57.2500 Du        
   6351 ****        33.0000  19.0000  57.5000 Du        
   6352 ****        33.0000  19.0000  57.7500 Du        
   6353 ****        33.0000  19.0000  58.0000 Du        
   6354 ****        33.0000  19.0000  58.2500 Du        
   6355 ****        33.0000  19.0000  58.5000 Du        
   6356 ****        33.0000  19.0000  58.7500 Du        
   6357 ****        33.0000  19.0000  59.0000 Du        
   6358 ****        33.0000  19.0000  59.2500 Du        
   6359 ****        33.0000  19.0000  59.5000 Du        
   6360 ****        33.0000  19.0000  59.7500 Du        
   6361 ****        33.0000  19.2500  57.2500 Du        
   6362 ****        33.0000  19.2500  57.5000 Du        
   6363 ****        33.0000  19.2500  57.7500 Du        
   6364 ****        33.0000  19.2500  58.0000 Du        
   6365 ****        33.0000  19.2500  58.2500 Du        
   6366 ****        33.0000  19.2500  58.5000 Du        
   6367 ****        33.0000  19.2500  58.7500 Du        
   6368 ****        33.0000  19.2500  59.0000 Du        
   6369 ****        33.0000  19.2500  59.2500 Du        
   6370 ****        33.0000  19.2500  59.5000 Du        
   6371 ****        33.0000  19.2500  59.7500 Du        
   6372 ****        33.0000  19.5000  57.2500 Du        
   6373 ****        33.0000  19.5000  57.5000 Du        
   6374 ****        33.0000  19.5000  57.7500 Du        
   6375 ****        33.0000  19.5000  58.0000 Du        
   6376 ****        33.0000  19.5000  58.2500 Du        
   6377 ****        33.0000  19.5000  58.5000 Du        
   6378 ****        33.0000  19.5000  58.7500 Du        
   6379 ****        33.0000  19.5000  59.0000 Du        
   6380 ****        33.0000  19.5000  59.2500 Du        
   6381 ****        33.0000  19.5000  59.7500 Du        
   6382 ****        33.0000  19.7500  57.5000 Du        
   6383 ****        33.0000  19.7500  57.7500 Du        
   6384 ****        33.0000  19.7500  58.0000 Du        
   6385 ****        33.0000  19.7500  58.2500 Du        
   6386 ****        33.0000  19.7500  58.5000 Du        
   6387 ****        33.0000  19.7500  58.7500 Du        
   6388 ****        33.0000  19.7500  59.0000 Du        
   6389 ****        33.0000  19.7500  59.2500 Du        
   6390 ****        33.0000  20.0000  57.5000 Du        
   6391 ****        33.0000  20.0000  57.7500 Du        
   6392 ****        33.0000  20.0000  58.0000 Du        
   6393 ****        33.0000  20.0000  58.2500 Du        
   6394 ****        33.0000  20.0000  58.5000 Du        
   6395 ****        33.0000  20.0000  58.7500 Du        
   6396 ****        33.0000  20.0000  59.0000 Du        
   6397 ****        33.0000  20.0000  59.2500 Du        
   6398 ****        33.0000  20.2500  57.7500 Du        
   6399 ****        33.0000  20.2500  58.0000 Du        
   6400 ****        33.0000  20.2500  58.2500 Du        
   6401 ****        33.0000  20.2500  58.5000 Du        
   6402 ****        33.0000  20.2500  58.7500 Du        
   6403 ****        33.0000  20.2500  59.0000 Du        
   6404 ****        33.0000  20.2500  59.2500 Du        
   6405 ****        33.0000  20.5000  58.0000 Du        
   6406 ****        33.0000  20.5000  58.2500 Du        
   6407 ****        33.0000  20.5000  58.5000 Du        
   6408 ****        33.0000  20.5000  58.7500 Du        
   6409 ****        33.0000  20.5000  59.0000 Du        
   6410 ****        33.0000  20.5000  59.2500 Du        
   6411 ****        33.0000  20.7500  58.0000 Du        
   6412 ****        33.0000  20.7500  58.2500 Du        
   6413 ****        33.0000  20.7500  58.5000 Du        
   6414 ****        33.0000  20.7500  58.7500 Du        
   6415 ****        33.0000  20.7500  59.0000 Du        
   6416 ****        33.0000  20.7500  59.2500 Du        
   6417 ****        33.0000  21.0000  58.2500 Du        
   6418 ****        33.0000  21.0000  58.5000 Du        
   6419 ****        33.0000  21.0000  58.7500 Du        
   6420 ****        33.0000  21.0000  59.0000 Du        
   6421 ****        33.0000  21.0000  59.2500 Du        
   6422 ****        33.0000  21.2500  58.2500 Du        
   6423 ****        33.0000  21.2500  58.5000 Du        
   6424 ****        33.0000  21.2500  58.7500 Du        
   6425 ****        33.0000  21.2500  59.0000 Du        
   6426 ****        33.0000  21.2500  59.2500 Du        
   6427 ****        33.0000  21.5000  58.5000 Du        
   6428 ****        33.0000  21.5000  58.7500 Du        
   6429 ****        33.0000  21.7500  58.5000 Du        
   6430 ****        33.0000  21.7500  58.7500 Du        
   6431 ****        33.0000  22.0000  58.7500 Du        
   6432 ****        33.0000  22.0000  59.0000 Du        
   6433 ****        33.0000  22.2500  58.7500 Du        
   6434 ****        33.2500  12.2500  55.0000 Du        
   6435 ****        33.2500  12.2500  55.2500 Du        
   6436 ****        33.2500  12.2500  55.5000 Du        
   6437 ****        33.2500  12.2500  55.7500 Du        
   6438 ****        33.2500  12.2500  56.0000 Du        
   6439 ****        33.2500  12.5000  54.7500 Du        
   6440 ****        33.2500  12.5000  55.0000 Du        
   6441 ****        33.2500  12.5000  55.2500 Du        
   6442 ****        33.2500  12.5000  55.5000 Du        
   6443 ****        33.2500  12.5000  55.7500 Du        
   6444 ****        33.2500  12.5000  56.0000 Du        
   6445 ****        33.2500  12.5000  56.2500 Du        
   6446 ****        33.2500  12.7500  55.0000 Du        
   6447 ****        33.2500  12.7500  55.2500 Du        
   6448 ****        33.2500  12.7500  55.5000 Du        
   6449 ****        33.2500  12.7500  55.7500 Du        
   6450 ****        33.2500  12.7500  56.0000 Du        
   6451 ****        33.2500  12.7500  56.2500 Du        
   6452 ****        33.2500  12.7500  56.5000 Du        
   6453 ****        33.2500  13.0000  55.5000 Du        
   6454 ****        33.2500  13.0000  55.7500 Du        
   6455 ****        33.2500  13.0000  56.0000 Du        
   6456 ****        33.2500  13.0000  56.2500 Du        
   6457 ****        33.2500  13.0000  56.5000 Du        
   6458 ****        33.2500  13.0000  56.7500 Du        
   6459 ****        33.2500  13.2500  55.7500 Du        
   6460 ****        33.2500  13.2500  56.0000 Du        
   6461 ****        33.2500  13.2500  56.2500 Du        
   6462 ****        33.2500  13.2500  56.5000 Du        
   6463 ****        33.2500  13.2500  56.7500 Du        
   6464 ****        33.2500  13.2500  57.0000 Du        
   6465 ****        33.2500  13.5000  56.0000 Du        
   6466 ****        33.2500  13.5000  56.2500 Du        
   6467 ****        33.2500  13.5000  56.5000 Du        
   6468 ****        33.2500  13.5000  56.7500 Du        
   6469 ****        33.2500  13.5000  57.0000 Du        
   6470 ****        33.2500  13.5000  57.2500 Du        
   6471 ****        33.2500  13.7500  56.2500 Du        
   6472 ****        33.2500  13.7500  56.5000 Du        
   6473 ****        33.2500  13.7500  56.7500 Du        
   6474 ****        33.2500  13.7500  57.0000 Du        
   6475 ****        33.2500  13.7500  57.2500 Du        
   6476 ****        33.2500  14.0000  56.5000 Du        
   6477 ****        33.2500  14.0000  56.7500 Du        
   6478 ****        33.2500  14.0000  57.0000 Du        
   6479 ****        33.2500  14.0000  57.2500 Du        
   6480 ****        33.2500  14.0000  57.5000 Du        
   6481 ****        33.2500  14.2500  56.7500 Du        
   6482 ****        33.2500  14.2500  57.0000 Du        
   6483 ****        33.2500  14.2500  57.2500 Du        
   6484 ****        33.2500  14.2500  57.5000 Du        
   6485 ****        33.2500  14.5000  56.7500 Du        
   6486 ****        33.2500  14.5000  57.0000 Du        
   6487 ****        33.2500  14.5000  57.2500 Du        
   6488 ****        33.2500  14.5000  57.5000 Du        
   6489 ****        33.2500  14.7500  57.0000 Du        
   6490 ****        33.2500  14.7500  57.2500 Du        
   6491 ****        33.2500  14.7500  57.5000 Du        
   6492 ****        33.2500  15.0000  57.0000 Du        
   6493 ****        33.2500  15.0000  57.2500 Du        
   6494 ****        33.2500  15.0000  57.5000 Du        
   6495 ****        33.2500  15.2500  57.2500 Du        
   6496 ****        33.2500  15.2500  57.5000 Du        
   6497 ****        33.2500  15.2500  57.7500 Du        
   6498 ****        33.2500  15.5000  57.2500 Du        
   6499 ****        33.2500  15.5000  57.5000 Du        
   6500 ****        33.2500  15.5000  57.7500 Du        
   6501 ****        33.2500  15.7500  57.5000 Du        
   6502 ****        33.2500  15.7500  57.7500 Du        
   6503 ****        33.2500  16.0000  57.5000 Du        
   6504 ****        33.2500  16.0000  57.7500 Du        
   6505 ****        33.2500  16.0000  58.0000 Du        
   6506 ****        33.2500  16.2500  57.5000 Du        
   6507 ****        33.2500  16.2500  57.7500 Du        
   6508 ****        33.2500  16.2500  58.0000 Du        
   6509 ****        33.2500  16.5000  57.5000 Du        
   6510 ****        33.2500  16.5000  57.7500 Du        
   6511 ****        33.2500  16.5000  58.0000 Du        
   6512 ****        33.2500  16.7500  57.5000 Du        
   6513 ****        33.2500  16.7500  57.7500 Du        
   6514 ****        33.2500  16.7500  58.0000 Du        
   6515 ****        33.2500  17.0000  57.5000 Du        
   6516 ****        33.2500  17.0000  57.7500 Du        
   6517 ****        33.2500  17.0000  58.0000 Du        
   6518 ****        33.2500  17.2500  57.5000 Du        
   6519 ****        33.2500  17.2500  57.7500 Du        
   6520 ****        33.2500  17.2500  58.0000 Du        
   6521 ****        33.2500  17.2500  58.2500 Du        
   6522 ****        33.2500  17.5000  57.5000 Du        
   6523 ****        33.2500  17.5000  57.7500 Du        
   6524 ****        33.2500  17.5000  58.0000 Du        
   6525 ****        33.2500  17.5000  58.2500 Du        
   6526 ****        33.2500  17.7500  57.5000 Du        
   6527 ****        33.2500  17.7500  57.7500 Du        
   6528 ****        33.2500  17.7500  58.0000 Du        
   6529 ****        33.2500  17.7500  58.2500 Du        
   6530 ****        33.2500  17.7500  58.5000 Du        
   6531 ****        33.2500  17.7500  58.7500 Du        
   6532 ****        33.2500  18.0000  57.2500 Du        
   6533 ****        33.2500  18.0000  57.5000 Du        
   6534 ****        33.2500  18.0000  57.7500 Du        
   6535 ****        33.2500  18.0000  58.0000 Du        
   6536 ****        33.2500  18.0000  58.2500 Du        
   6537 ****        33.2500  18.0000  58.5000 Du        
   6538 ****        33.2500  18.0000  58.7500 Du        
   6539 ****        33.2500  18.0000  59.0000 Du        
   6540 ****        33.2500  18.2500  57.2500 Du        
   6541 ****        33.2500  18.2500  57.5000 Du        
   6542 ****        33.2500  18.2500  57.7500 Du        
   6543 ****        33.2500  18.2500  58.0000 Du        
   6544 ****        33.2500  18.2500  58.2500 Du        
   6545 ****        33.2500  18.2500  58.5000 Du        
   6546 ****        33.2500  18.2500  58.7500 Du        
   6547 ****        33.2500  18.2500  59.0000 Du        
   6548 ****        33.2500  18.2500  59.2500 Du        
   6549 ****        33.2500  18.5000  57.2500 Du        
   6550 ****        33.2500  18.5000  57.5000 Du        
   6551 ****        33.2500  18.5000  57.7500 Du        
   6552 ****        33.2500  18.5000  58.0000 Du        
   6553 ****        33.2500  18.5000  58.2500 Du        
   6554 ****        33.2500  18.5000  58.5000 Du        
   6555 ****        33.2500  18.5000  58.7500 Du        
   6556 ****        33.2500  18.5000  59.0000 Du        
   6557 ****        33.2500  18.5000  59.2500 Du        
   6558 ****        33.2500  18.5000  59.5000 Du        
   6559 ****        33.2500  18.7500  57.2500 Du        
   6560 ****        33.2500  18.7500  57.5000 Du        
   6561 ****        33.2500  18.7500  57.7500 Du        
   6562 ****        33.2500  18.7500  58.0000 Du        
   6563 ****        33.2500  18.7500  58.2500 Du        
   6564 ****        33.2500  18.7500  58.5000 Du        
   6565 ****        33.2500  18.7500  58.7500 Du        
   6566 ****        33.2500  18.7500  59.0000 Du        
   6567 ****        33.2500  18.7500  59.2500 Du        
   6568 ****        33.2500  18.7500  59.5000 Du        
   6569 ****        33.2500  18.7500  59.7500 Du        
   6570 ****        33.2500  19.0000  57.2500 Du        
   6571 ****        33.2500  19.0000  57.5000 Du        
   6572 ****        33.2500  19.0000  57.7500 Du        
   6573 ****        33.2500  19.0000  58.0000 Du        
   6574 ****        33.2500  19.0000  58.2500 Du        
   6575 ****        33.2500  19.0000  58.5000 Du        
   6576 ****        33.2500  19.0000  58.7500 Du        
   6577 ****        33.2500  19.0000  59.0000 Du        
   6578 ****        33.2500  19.0000  59.2500 Du        
   6579 ****        33.2500  19.0000  59.5000 Du        
   6580 ****        33.2500  19.0000  59.7500 Du        
   6581 ****        33.2500  19.0000  60.0000 Du        
   6582 ****        33.2500  19.2500  57.2500 Du        
   6583 ****        33.2500  19.2500  57.5000 Du        
   6584 ****        33.2500  19.2500  57.7500 Du        
   6585 ****        33.2500  19.2500  58.0000 Du        
   6586 ****        33.2500  19.2500  58.2500 Du        
   6587 ****        33.2500  19.2500  58.5000 Du        
   6588 ****        33.2500  19.2500  58.7500 Du        
   6589 ****        33.2500  19.2500  59.0000 Du        
   6590 ****        33.2500  19.2500  59.2500 Du        
   6591 ****        33.2500  19.2500  59.5000 Du        
   6592 ****        33.2500  19.2500  59.7500 Du        
   6593 ****        33.2500  19.2500  60.0000 Du        
   6594 ****        33.2500  19.5000  57.2500 Du        
   6595 ****        33.2500  19.5000  57.5000 Du        
   6596 ****        33.2500  19.5000  57.7500 Du        
   6597 ****        33.2500  19.5000  58.0000 Du        
   6598 ****        33.2500  19.5000  58.2500 Du        
   6599 ****        33.2500  19.5000  58.5000 Du        
   6600 ****        33.2500  19.5000  58.7500 Du        
   6601 ****        33.2500  19.5000  59.0000 Du        
   6602 ****        33.2500  19.5000  59.2500 Du        
   6603 ****        33.2500  19.5000  59.5000 Du        
   6604 ****        33.2500  19.7500  57.5000 Du        
   6605 ****        33.2500  19.7500  57.7500 Du        
   6606 ****        33.2500  19.7500  58.0000 Du        
   6607 ****        33.2500  19.7500  58.2500 Du        
   6608 ****        33.2500  19.7500  58.5000 Du        
   6609 ****        33.2500  19.7500  58.7500 Du        
   6610 ****        33.2500  19.7500  59.0000 Du        
   6611 ****        33.2500  19.7500  59.2500 Du        
   6612 ****        33.2500  20.0000  57.7500 Du        
   6613 ****        33.2500  20.0000  58.0000 Du        
   6614 ****        33.2500  20.0000  58.2500 Du        
   6615 ****        33.2500  20.0000  58.5000 Du        
   6616 ****        33.2500  20.0000  58.7500 Du        
   6617 ****        33.2500  20.0000  59.0000 Du        
   6618 ****        33.2500  20.0000  59.2500 Du        
   6619 ****        33.2500  20.2500  57.7500 Du        
   6620 ****        33.2500  20.2500  58.0000 Du        
   6621 ****        33.2500  20.2500  58.2500 Du        
   6622 ****        33.2500  20.2500  58.5000 Du        
   6623 ****        33.2500  20.2500  58.7500 Du        
   6624 ****        33.2500  20.2500  59.0000 Du        
   6625 ****        33.2500  20.2500  59.2500 Du        
   6626 ****        33.2500  20.5000  58.0000 Du        
   6627 ****        33.2500  20.5000  58.2500 Du        
   6628 ****        33.2500  20.5000  58.5000 Du        
   6629 ****        33.2500  20.5000  58.7500 Du        
   6630 ****        33.2500  20.5000  59.0000 Du        
   6631 ****        33.2500  20.5000  59.2500 Du        
   6632 ****        33.2500  20.7500  58.2500 Du        
   6633 ****        33.2500  20.7500  58.5000 Du        
   6634 ****        33.2500  20.7500  58.7500 Du        
   6635 ****        33.2500  20.7500  59.0000 Du        
   6636 ****        33.2500  20.7500  59.2500 Du        
   6637 ****        33.2500  21.0000  58.2500 Du        
   6638 ****        33.2500  21.0000  58.5000 Du        
   6639 ****        33.2500  21.0000  58.7500 Du        
   6640 ****        33.2500  21.0000  59.0000 Du        
   6641 ****        33.2500  21.2500  58.2500 Du        
   6642 ****        33.2500  21.2500  58.5000 Du        
   6643 ****        33.2500  21.2500  58.7500 Du        
   6644 ****        33.2500  21.2500  59.0000 Du        
   6645 ****        33.2500  21.2500  59.2500 Du        
   6646 ****        33.5000  12.2500  55.5000 Du        
   6647 ****        33.5000  12.2500  55.7500 Du        
   6648 ****        33.5000  12.2500  56.0000 Du        
   6649 ****        33.5000  12.5000  55.2500 Du        
   6650 ****        33.5000  12.5000  55.5000 Du        
   6651 ****        33.5000  12.5000  55.7500 Du        
   6652 ****        33.5000  12.5000  56.0000 Du        
   6653 ****        33.5000  12.5000  56.2500 Du        
   6654 ****        33.5000  12.7500  55.2500 Du        
   6655 ****        33.5000  12.7500  55.5000 Du        
   6656 ****        33.5000  12.7500  55.7500 Du        
   6657 ****        33.5000  12.7500  56.0000 Du        
   6658 ****        33.5000  12.7500  56.2500 Du        
   6659 ****        33.5000  12.7500  56.5000 Du        
   6660 ****        33.5000  13.0000  55.5000 Du        
   6661 ****        33.5000  13.0000  55.7500 Du        
   6662 ****        33.5000  13.0000  56.0000 Du        
   6663 ****        33.5000  13.0000  56.2500 Du        
   6664 ****        33.5000  13.0000  56.5000 Du        
   6665 ****        33.5000  13.0000  56.7500 Du        
   6666 ****        33.5000  13.2500  56.0000 Du        
   6667 ****        33.5000  13.2500  56.2500 Du        
   6668 ****        33.5000  13.2500  56.5000 Du        
   6669 ****        33.5000  13.2500  56.7500 Du        
   6670 ****        33.5000  13.2500  57.0000 Du        
   6671 ****        33.5000  13.5000  56.2500 Du        
   6672 ****        33.5000  13.5000  56.5000 Du        
   6673 ****        33.5000  13.5000  56.7500 Du        
   6674 ****        33.5000  13.5000  57.0000 Du        
   6675 ****        33.5000  13.5000  57.2500 Du        
   6676 ****        33.5000  13.7500  56.5000 Du        
   6677 ****        33.5000  13.7500  56.7500 Du        
   6678 ****        33.5000  13.7500  57.0000 Du        
   6679 ****        33.5000  13.7500  57.2500 Du        
   6680 ****        33.5000  14.0000  56.5000 Du        
   6681 ****        33.5000  14.0000  56.7500 Du        
   6682 ****        33.5000  14.0000  57.0000 Du        
   6683 ****        33.5000  14.0000  57.2500 Du        
   6684 ****        33.5000  14.0000  57.5000 Du        
   6685 ****        33.5000  14.2500  56.7500 Du        
   6686 ****        33.5000  14.2500  57.0000 Du        
   6687 ****        33.5000  14.2500  57.2500 Du        
   6688 ****        33.5000  14.2500  57.5000 Du        
   6689 ****        33.5000  14.5000  57.0000 Du        
   6690 ****        33.5000  14.5000  57.2500 Du        
   6691 ****        33.5000  14.5000  57.5000 Du        
   6692 ****        33.5000  14.7500  57.0000 Du        
   6693 ****        33.5000  14.7500  57.2500 Du        
   6694 ****        33.5000  14.7500  57.5000 Du        
   6695 ****        33.5000  15.0000  57.0000 Du        
   6696 ****        33.5000  15.0000  57.2500 Du        
   6697 ****        33.5000  15.0000  57.5000 Du        
   6698 ****        33.5000  15.0000  57.7500 Du        
   6699 ****        33.5000  15.2500  57.0000 Du        
   6700 ****        33.5000  15.2500  57.2500 Du        
   6701 ****        33.5000  15.2500  57.5000 Du        
   6702 ****        33.5000  15.2500  57.7500 Du        
   6703 ****        33.5000  15.5000  57.2500 Du        
   6704 ****        33.5000  15.5000  57.5000 Du        
   6705 ****        33.5000  15.5000  57.7500 Du        
   6706 ****        33.5000  15.7500  57.2500 Du        
   6707 ****        33.5000  15.7500  57.5000 Du        
   6708 ****        33.5000  15.7500  57.7500 Du        
   6709 ****        33.5000  15.7500  58.0000 Du        
   6710 ****        33.5000  16.0000  57.2500 Du        
   6711 ****        33.5000  16.0000  57.5000 Du        
   6712 ****        33.5000  16.0000  57.7500 Du        
   6713 ****        33.5000  16.0000  58.0000 Du        
   6714 ****        33.5000  16.2500  57.5000 Du        
   6715 ****        33.5000  16.2500  57.7500 Du        
   6716 ****        33.5000  16.2500  58.0000 Du        
   6717 ****        33.5000  16.5000  57.5000 Du        
   6718 ****        33.5000  16.5000  57.7500 Du        
   6719 ****        33.5000  16.5000  58.0000 Du        
   6720 ****        33.5000  16.5000  58.2500 Du        
   6721 ****        33.5000  16.7500  57.5000 Du        
   6722 ****        33.5000  16.7500  57.7500 Du        
   6723 ****        33.5000  16.7500  58.0000 Du        
   6724 ****        33.5000  16.7500  58.2500 Du        
   6725 ****        33.5000  17.0000  57.7500 Du        
   6726 ****        33.5000  17.0000  58.0000 Du        
   6727 ****        33.5000  17.0000  58.2500 Du        
   6728 ****        33.5000  17.0000  58.5000 Du        
   6729 ****        33.5000  17.2500  57.7500 Du        
   6730 ****        33.5000  17.2500  58.0000 Du        
   6731 ****        33.5000  17.2500  58.2500 Du        
   6732 ****        33.5000  17.2500  58.5000 Du        
   6733 ****        33.5000  17.5000  57.7500 Du        
   6734 ****        33.5000  17.5000  58.0000 Du        
   6735 ****        33.5000  17.5000  58.2500 Du        
   6736 ****        33.5000  17.5000  58.5000 Du        
   6737 ****        33.5000  17.5000  58.7500 Du        
   6738 ****        33.5000  17.7500  57.7500 Du        
   6739 ****        33.5000  17.7500  58.0000 Du        
   6740 ****        33.5000  17.7500  58.2500 Du        
   6741 ****        33.5000  17.7500  58.5000 Du        
   6742 ****        33.5000  17.7500  58.7500 Du        
   6743 ****        33.5000  17.7500  59.0000 Du        
   6744 ****        33.5000  18.0000  57.5000 Du        
   6745 ****        33.5000  18.0000  57.7500 Du        
   6746 ****        33.5000  18.0000  58.0000 Du        
   6747 ****        33.5000  18.0000  58.2500 Du        
   6748 ****        33.5000  18.0000  58.5000 Du        
   6749 ****        33.5000  18.0000  58.7500 Du        
   6750 ****        33.5000  18.0000  59.0000 Du        
   6751 ****        33.5000  18.0000  59.2500 Du        
   6752 ****        33.5000  18.2500  57.5000 Du        
   6753 ****        33.5000  18.2500  57.7500 Du        
   6754 ****        33.5000  18.2500  58.0000 Du        
   6755 ****        33.5000  18.2500  58.2500 Du        
   6756 ****        33.5000  18.2500  58.5000 Du        
   6757 ****        33.5000  18.2500  58.7500 Du        
   6758 ****        33.5000  18.2500  59.0000 Du        
   6759 ****        33.5000  18.2500  59.2500 Du        
   6760 ****        33.5000  18.2500  59.5000 Du        
   6761 ****        33.5000  18.5000  57.5000 Du        
   6762 ****        33.5000  18.5000  57.7500 Du        
   6763 ****        33.5000  18.5000  58.0000 Du        
   6764 ****        33.5000  18.5000  58.2500 Du        
   6765 ****        33.5000  18.5000  58.5000 Du        
   6766 ****        33.5000  18.5000  58.7500 Du        
   6767 ****        33.5000  18.5000  59.0000 Du        
   6768 ****        33.5000  18.5000  59.2500 Du        
   6769 ****        33.5000  18.5000  59.5000 Du        
   6770 ****        33.5000  18.5000  59.7500 Du        
   6771 ****        33.5000  18.7500  57.5000 Du        
   6772 ****        33.5000  18.7500  57.7500 Du        
   6773 ****        33.5000  18.7500  58.0000 Du        
   6774 ****        33.5000  18.7500  58.2500 Du        
   6775 ****        33.5000  18.7500  58.5000 Du        
   6776 ****        33.5000  18.7500  58.7500 Du        
   6777 ****        33.5000  18.7500  59.0000 Du        
   6778 ****        33.5000  18.7500  59.2500 Du        
   6779 ****        33.5000  18.7500  59.5000 Du        
   6780 ****        33.5000  18.7500  59.7500 Du        
   6781 ****        33.5000  18.7500  60.0000 Du        
   6782 ****        33.5000  19.0000  57.2500 Du        
   6783 ****        33.5000  19.0000  57.5000 Du        
   6784 ****        33.5000  19.0000  57.7500 Du        
   6785 ****        33.5000  19.0000  58.0000 Du        
   6786 ****        33.5000  19.0000  58.2500 Du        
   6787 ****        33.5000  19.0000  58.5000 Du        
   6788 ****        33.5000  19.0000  58.7500 Du        
   6789 ****        33.5000  19.0000  59.0000 Du        
   6790 ****        33.5000  19.0000  59.2500 Du        
   6791 ****        33.5000  19.0000  59.5000 Du        
   6792 ****        33.5000  19.0000  59.7500 Du        
   6793 ****        33.5000  19.0000  60.0000 Du        
   6794 ****        33.5000  19.2500  57.2500 Du        
   6795 ****        33.5000  19.2500  57.5000 Du        
   6796 ****        33.5000  19.2500  57.7500 Du        
   6797 ****        33.5000  19.2500  58.0000 Du        
   6798 ****        33.5000  19.2500  58.2500 Du        
   6799 ****        33.5000  19.2500  58.5000 Du        
   6800 ****        33.5000  19.2500  58.7500 Du        
   6801 ****        33.5000  19.2500  59.0000 Du        
   6802 ****        33.5000  19.2500  59.2500 Du        
   6803 ****        33.5000  19.2500  59.5000 Du        
   6804 ****        33.5000  19.2500  59.7500 Du        
   6805 ****        33.5000  19.2500  60.0000 Du        
   6806 ****        33.5000  19.5000  57.5000 Du        
   6807 ****        33.5000  19.5000  57.7500 Du        
   6808 ****        33.5000  19.5000  58.0000 Du        
   6809 ****        33.5000  19.5000  58.2500 Du        
   6810 ****        33.5000  19.5000  58.5000 Du        
   6811 ****        33.5000  19.5000  58.7500 Du        
   6812 ****        33.5000  19.5000  59.0000 Du        
   6813 ****        33.5000  19.5000  59.2500 Du        
   6814 ****        33.5000  19.5000  59.5000 Du        
   6815 ****        33.5000  19.5000  59.7500 Du        
   6816 ****        33.5000  19.7500  57.5000 Du        
   6817 ****        33.5000  19.7500  57.7500 Du        
   6818 ****        33.5000  19.7500  58.0000 Du        
   6819 ****        33.5000  19.7500  58.2500 Du        
   6820 ****        33.5000  19.7500  58.5000 Du        
   6821 ****        33.5000  19.7500  58.7500 Du        
   6822 ****        33.5000  19.7500  59.0000 Du        
   6823 ****        33.5000  19.7500  59.2500 Du        
   6824 ****        33.5000  19.7500  59.5000 Du        
   6825 ****        33.5000  19.7500  59.7500 Du        
   6826 ****        33.5000  20.0000  57.7500 Du        
   6827 ****        33.5000  20.0000  58.0000 Du        
   6828 ****        33.5000  20.0000  58.2500 Du        
   6829 ****        33.5000  20.0000  58.5000 Du        
   6830 ****        33.5000  20.0000  58.7500 Du        
   6831 ****        33.5000  20.0000  59.0000 Du        
   6832 ****        33.5000  20.0000  59.2500 Du        
   6833 ****        33.5000  20.0000  59.5000 Du        
   6834 ****        33.5000  20.0000  59.7500 Du        
   6835 ****        33.5000  20.2500  58.0000 Du        
   6836 ****        33.5000  20.2500  58.2500 Du        
   6837 ****        33.5000  20.2500  58.5000 Du        
   6838 ****        33.5000  20.2500  58.7500 Du        
   6839 ****        33.5000  20.2500  59.0000 Du        
   6840 ****        33.5000  20.2500  59.2500 Du        
   6841 ****        33.5000  20.5000  58.2500 Du        
   6842 ****        33.5000  20.5000  58.5000 Du        
   6843 ****        33.5000  20.5000  58.7500 Du        
   6844 ****        33.5000  20.5000  59.0000 Du        
   6845 ****        33.5000  20.5000  59.2500 Du        
   6846 ****        33.5000  20.7500  58.2500 Du        
   6847 ****        33.5000  20.7500  58.5000 Du        
   6848 ****        33.5000  20.7500  58.7500 Du        
   6849 ****        33.5000  20.7500  59.0000 Du        
   6850 ****        33.5000  20.7500  59.2500 Du        
   6851 ****        33.5000  21.0000  58.7500 Du        
   6852 ****        33.5000  21.0000  59.0000 Du        
   6853 ****        33.5000  21.0000  59.2500 Du        
   6854 ****        33.5000  21.2500  58.7500 Du        
   6855 ****        33.7500  12.5000  55.5000 Du        
   6856 ****        33.7500  12.5000  55.7500 Du        
   6857 ****        33.7500  12.5000  56.0000 Du        
   6858 ****        33.7500  12.5000  56.2500 Du        
   6859 ****        33.7500  12.7500  55.5000 Du        
   6860 ****        33.7500  12.7500  55.7500 Du        
   6861 ****        33.7500  12.7500  56.0000 Du        
   6862 ****        33.7500  12.7500  56.2500 Du        
   6863 ****        33.7500  12.7500  56.5000 Du        
   6864 ****        33.7500  13.0000  55.7500 Du        
   6865 ****        33.7500  13.0000  56.0000 Du        
   6866 ****        33.7500  13.0000  56.2500 Du        
   6867 ****        33.7500  13.0000  56.5000 Du        
   6868 ****        33.7500  13.0000  56.7500 Du        
   6869 ****        33.7500  13.2500  56.0000 Du        
   6870 ****        33.7500  13.2500  56.2500 Du        
   6871 ****        33.7500  13.2500  56.5000 Du        
   6872 ****        33.7500  13.2500  56.7500 Du        
   6873 ****        33.7500  13.2500  57.0000 Du        
   6874 ****        33.7500  13.5000  56.2500 Du        
   6875 ****        33.7500  13.5000  56.5000 Du        
   6876 ****        33.7500  13.5000  56.7500 Du        
   6877 ****        33.7500  13.5000  57.0000 Du        
   6878 ****        33.7500  13.5000  57.2500 Du        
   6879 ****        33.7500  13.7500  56.5000 Du        
   6880 ****        33.7500  13.7500  56.7500 Du        
   6881 ****        33.7500  13.7500  57.0000 Du        
   6882 ****        33.7500  13.7500  57.2500 Du        
   6883 ****        33.7500  14.0000  56.5000 Du        
   6884 ****        33.7500  14.0000  56.7500 Du        
   6885 ****        33.7500  14.0000  57.0000 Du        
   6886 ****        33.7500  14.0000  57.2500 Du        
   6887 ****        33.7500  14.0000  57.5000 Du        
   6888 ****        33.7500  14.2500  56.7500 Du        
   6889 ****        33.7500  14.2500  57.0000 Du        
   6890 ****        33.7500  14.2500  57.2500 Du        
   6891 ****        33.7500  14.2500  57.5000 Du        
   6892 ****        33.7500  14.5000  56.7500 Du        
   6893 ****        33.7500  14.5000  57.0000 Du        
   6894 ****        33.7500  14.5000  57.2500 Du        
   6895 ****        33.7500  14.5000  57.5000 Du        
   6896 ****        33.7500  14.7500  57.0000 Du        
   6897 ****        33.7500  14.7500  57.2500 Du        
   6898 ****        33.7500  14.7500  57.5000 Du        
   6899 ****        33.7500  15.0000  57.0000 Du        
   6900 ****        33.7500  15.0000  57.2500 Du        
   6901 ****        33.7500  15.0000  57.5000 Du        
   6902 ****        33.7500  15.0000  57.7500 Du        
   6903 ****        33.7500  15.2500  57.2500 Du        
   6904 ****        33.7500  15.2500  57.5000 Du        
   6905 ****        33.7500  15.2500  57.7500 Du        
   6906 ****        33.7500  15.5000  57.2500 Du        
   6907 ****        33.7500  15.5000  57.5000 Du        
   6908 ****        33.7500  15.5000  57.7500 Du        
   6909 ****        33.7500  15.5000  58.0000 Du        
   6910 ****        33.7500  15.7500  57.2500 Du        
   6911 ****        33.7500  15.7500  57.5000 Du        
   6912 ****        33.7500  15.7500  57.7500 Du        
   6913 ****        33.7500  15.7500  58.0000 Du        
   6914 ****        33.7500  16.0000  57.5000 Du        
   6915 ****        33.7500  16.0000  57.7500 Du        
   6916 ****        33.7500  16.0000  58.0000 Du        
   6917 ****        33.7500  16.0000  58.2500 Du        
   6918 ****        33.7500  16.2500  57.5000 Du        
   6919 ****        33.7500  16.2500  57.7500 Du        
   6920 ****        33.7500  16.2500  58.0000 Du        
   6921 ****        33.7500  16.2500  58.2500 Du        
   6922 ****        33.7500  16.5000  57.5000 Du        
   6923 ****        33.7500  16.5000  57.7500 Du        
   6924 ****        33.7500  16.5000  58.0000 Du        
   6925 ****        33.7500  16.5000  58.2500 Du        
   6926 ****        33.7500  16.7500  57.5000 Du        
   6927 ****        33.7500  16.7500  57.7500 Du        
   6928 ****        33.7500  16.7500  58.0000 Du        
   6929 ****        33.7500  16.7500  58.2500 Du        
   6930 ****        33.7500  16.7500  58.5000 Du        
   6931 ****        33.7500  17.0000  57.7500 Du        
   6932 ****        33.7500  17.0000  58.0000 Du        
   6933 ****        33.7500  17.0000  58.2500 Du        
   6934 ****        33.7500  17.0000  58.5000 Du        
   6935 ****        33.7500  17.2500  57.7500 Du        
   6936 ****        33.7500  17.2500  58.0000 Du        
   6937 ****        33.7500  17.2500  58.2500 Du        
   6938 ****        33.7500  17.2500  58.5000 Du        
   6939 ****        33.7500  17.2500  58.7500 Du        
   6940 ****        33.7500  17.5000  57.7500 Du        
   6941 ****        33.7500  17.5000  58.0000 Du        
   6942 ****        33.7500  17.5000  58.2500 Du        
   6943 ****        33.7500  17.5000  58.5000 Du        
   6944 ****        33.7500  17.5000  58.7500 Du        
   6945 ****        33.7500  17.5000  59.0000 Du        
   6946 ****        33.7500  17.7500  57.7500 Du        
   6947 ****        33.7500  17.7500  58.0000 Du        
   6948 ****        33.7500  17.7500  58.2500 Du        
   6949 ****        33.7500  17.7500  58.5000 Du        
   6950 ****        33.7500  17.7500  58.7500 Du        
   6951 ****        33.7500  17.7500  59.0000 Du        
   6952 ****        33.7500  17.7500  59.2500 Du        
   6953 ****        33.7500  18.0000  57.7500 Du        
   6954 ****        33.7500  18.0000  58.0000 Du        
   6955 ****        33.7500  18.0000  58.2500 Du        
   6956 ****        33.7500  18.0000  58.5000 Du        
   6957 ****        33.7500  18.0000  58.7500 Du        
   6958 ****        33.7500  18.0000  59.0000 Du        
   6959 ****        33.7500  18.0000  59.2500 Du        
   6960 ****        33.7500  18.2500  57.7500 Du        
   6961 ****        33.7500  18.2500  58.0000 Du        
   6962 ****        33.7500  18.2500  58.2500 Du        
   6963 ****        33.7500  18.2500  58.5000 Du        
   6964 ****        33.7500  18.2500  58.7500 Du        
   6965 ****        33.7500  18.2500  59.0000 Du        
   6966 ****        33.7500  18.2500  59.2500 Du        
   6967 ****        33.7500  18.2500  59.5000 Du        
   6968 ****        33.7500  18.2500  59.7500 Du        
   6969 ****        33.7500  18.5000  57.5000 Du        
   6970 ****        33.7500  18.5000  57.7500 Du        
   6971 ****        33.7500  18.5000  58.0000 Du        
   6972 ****        33.7500  18.5000  58.2500 Du        
   6973 ****        33.7500  18.5000  58.5000 Du        
   6974 ****        33.7500  18.5000  58.7500 Du        
   6975 ****        33.7500  18.5000  59.0000 Du        
   6976 ****        33.7500  18.5000  59.2500 Du        
   6977 ****        33.7500  18.5000  59.5000 Du        
   6978 ****        33.7500  18.5000  59.7500 Du        
   6979 ****        33.7500  18.5000  60.0000 Du        
   6980 ****        33.7500  18.7500  57.5000 Du        
   6981 ****        33.7500  18.7500  57.7500 Du        
   6982 ****        33.7500  18.7500  58.0000 Du        
   6983 ****        33.7500  18.7500  58.2500 Du        
   6984 ****        33.7500  18.7500  58.5000 Du        
   6985 ****        33.7500  18.7500  58.7500 Du        
   6986 ****        33.7500  18.7500  59.0000 Du        
   6987 ****        33.7500  18.7500  59.2500 Du        
   6988 ****        33.7500  18.7500  59.5000 Du        
   6989 ****        33.7500  18.7500  59.7500 Du        
   6990 ****        33.7500  18.7500  60.0000 Du        
   6991 ****        33.7500  19.0000  57.5000 Du        
   6992 ****        33.7500  19.0000  57.7500 Du        
   6993 ****        33.7500  19.0000  58.0000 Du        
   6994 ****        33.7500  19.0000  58.2500 Du        
   6995 ****        33.7500  19.0000  58.5000 Du        
   6996 ****        33.7500  19.0000  58.7500 Du        
   6997 ****        33.7500  19.0000  59.0000 Du        
   6998 ****        33.7500  19.0000  59.2500 Du        
   6999 ****        33.7500  19.0000  59.5000 Du        
   7000 ****        33.7500  19.0000  59.7500 Du        
   7001 ****        33.7500  19.0000  60.0000 Du        
   7002 ****        33.7500  19.2500  57.5000 Du        
   7003 ****        33.7500  19.2500  57.7500 Du        
   7004 ****        33.7500  19.2500  58.0000 Du        
   7005 ****        33.7500  19.2500  58.2500 Du        
   7006 ****        33.7500  19.2500  58.5000 Du        
   7007 ****        33.7500  19.2500  58.7500 Du        
   7008 ****        33.7500  19.2500  59.0000 Du        
   7009 ****        33.7500  19.2500  59.2500 Du        
   7010 ****        33.7500  19.2500  59.5000 Du        
   7011 ****        33.7500  19.2500  59.7500 Du        
   7012 ****        33.7500  19.2500  60.0000 Du        
   7013 ****        33.7500  19.5000  57.5000 Du        
   7014 ****        33.7500  19.5000  57.7500 Du        
   7015 ****        33.7500  19.5000  58.0000 Du        
   7016 ****        33.7500  19.5000  58.2500 Du        
   7017 ****        33.7500  19.5000  58.5000 Du        
   7018 ****        33.7500  19.5000  58.7500 Du        
   7019 ****        33.7500  19.5000  59.0000 Du        
   7020 ****        33.7500  19.5000  59.2500 Du        
   7021 ****        33.7500  19.5000  59.5000 Du        
   7022 ****        33.7500  19.5000  59.7500 Du        
   7023 ****        33.7500  19.5000  60.0000 Du        
   7024 ****        33.7500  19.7500  57.5000 Du        
   7025 ****        33.7500  19.7500  57.7500 Du        
   7026 ****        33.7500  19.7500  58.0000 Du        
   7027 ****        33.7500  19.7500  58.2500 Du        
   7028 ****        33.7500  19.7500  58.5000 Du        
   7029 ****        33.7500  19.7500  58.7500 Du        
   7030 ****        33.7500  19.7500  59.0000 Du        
   7031 ****        33.7500  19.7500  59.2500 Du        
   7032 ****        33.7500  19.7500  59.5000 Du        
   7033 ****        33.7500  19.7500  59.7500 Du        
   7034 ****        33.7500  20.0000  57.7500 Du        
   7035 ****        33.7500  20.0000  58.0000 Du        
   7036 ****        33.7500  20.0000  58.2500 Du        
   7037 ****        33.7500  20.0000  58.5000 Du        
   7038 ****        33.7500  20.0000  58.7500 Du        
   7039 ****        33.7500  20.0000  59.0000 Du        
   7040 ****        33.7500  20.0000  59.2500 Du        
   7041 ****        33.7500  20.0000  59.5000 Du        
   7042 ****        33.7500  20.0000  59.7500 Du        
   7043 ****        33.7500  20.2500  58.0000 Du        
   7044 ****        33.7500  20.2500  58.2500 Du        
   7045 ****        33.7500  20.2500  58.5000 Du        
   7046 ****        33.7500  20.2500  58.7500 Du        
   7047 ****        33.7500  20.2500  59.0000 Du        
   7048 ****        33.7500  20.2500  59.2500 Du        
   7049 ****        33.7500  20.2500  59.5000 Du        
   7050 ****        33.7500  20.2500  59.7500 Du        
   7051 ****        33.7500  20.5000  58.0000 Du        
   7052 ****        33.7500  20.5000  58.2500 Du        
   7053 ****        33.7500  20.5000  58.5000 Du        
   7054 ****        33.7500  20.5000  58.7500 Du        
   7055 ****        33.7500  20.5000  59.0000 Du        
   7056 ****        33.7500  20.5000  59.2500 Du        
   7057 ****        33.7500  20.7500  58.2500 Du        
   7058 ****        33.7500  20.7500  58.5000 Du        
   7059 ****        33.7500  20.7500  58.7500 Du        
   7060 ****        33.7500  20.7500  59.0000 Du        
   7061 ****        33.7500  20.7500  59.2500 Du        
   7062 ****        33.7500  21.0000  58.2500 Du        
   7063 ****        33.7500  21.0000  58.5000 Du        
   7064 ****        33.7500  21.0000  58.7500 Du        
   7065 ****        33.7500  21.0000  59.0000 Du        
   7066 ****        33.7500  21.0000  59.2500 Du        
   7067 ****        33.7500  21.2500  58.5000 Du        
   7068 ****        33.7500  21.2500  58.7500 Du        
   7069 ****        34.0000  12.7500  55.7500 Du        
   7070 ****        34.0000  12.7500  56.0000 Du        
   7071 ****        34.0000  12.7500  56.2500 Du        
   7072 ****        34.0000  12.7500  56.5000 Du        
   7073 ****        34.0000  13.0000  55.7500 Du        
   7074 ****        34.0000  13.0000  56.0000 Du        
   7075 ****        34.0000  13.0000  56.2500 Du        
   7076 ****        34.0000  13.0000  56.5000 Du        
   7077 ****        34.0000  13.0000  56.7500 Du        
   7078 ****        34.0000  13.2500  56.0000 Du        
   7079 ****        34.0000  13.2500  56.2500 Du        
   7080 ****        34.0000  13.2500  56.5000 Du        
   7081 ****        34.0000  13.2500  56.7500 Du        
   7082 ****        34.0000  13.2500  57.0000 Du        
   7083 ****        34.0000  13.5000  56.2500 Du        
   7084 ****        34.0000  13.5000  56.5000 Du        
   7085 ****        34.0000  13.5000  56.7500 Du        
   7086 ****        34.0000  13.5000  57.0000 Du        
   7087 ****        34.0000  13.5000  57.2500 Du        
   7088 ****        34.0000  13.7500  56.2500 Du        
   7089 ****        34.0000  13.7500  56.5000 Du        
   7090 ****        34.0000  13.7500  56.7500 Du        
   7091 ****        34.0000  13.7500  57.0000 Du        
   7092 ****        34.0000  13.7500  57.2500 Du        
   7093 ****        34.0000  13.7500  57.5000 Du        
   7094 ****        34.0000  14.0000  56.5000 Du        
   7095 ****        34.0000  14.0000  56.7500 Du        
   7096 ****        34.0000  14.0000  57.0000 Du        
   7097 ****        34.0000  14.0000  57.2500 Du        
   7098 ****        34.0000  14.0000  57.5000 Du        
   7099 ****        34.0000  14.2500  56.7500 Du        
   7100 ****        34.0000  14.2500  57.0000 Du        
   7101 ****        34.0000  14.2500  57.2500 Du        
   7102 ****        34.0000  14.2500  57.5000 Du        
   7103 ****        34.0000  14.5000  56.7500 Du        
   7104 ****        34.0000  14.5000  57.0000 Du        
   7105 ****        34.0000  14.5000  57.2500 Du        
   7106 ****        34.0000  14.5000  57.5000 Du        
   7107 ****        34.0000  14.7500  57.0000 Du        
   7108 ****        34.0000  14.7500  57.2500 Du        
   7109 ****        34.0000  14.7500  57.5000 Du        
   7110 ****        34.0000  14.7500  57.7500 Du        
   7111 ****        34.0000  15.0000  57.0000 Du        
   7112 ****        34.0000  15.0000  57.2500 Du        
   7113 ****        34.0000  15.0000  57.5000 Du        
   7114 ****        34.0000  15.0000  57.7500 Du        
   7115 ****        34.0000  15.2500  57.2500 Du        
   7116 ****        34.0000  15.2500  57.5000 Du        
   7117 ****        34.0000  15.2500  57.7500 Du        
   7118 ****        34.0000  15.2500  58.0000 Du        
   7119 ****        34.0000  15.5000  57.2500 Du        
   7120 ****        34.0000  15.5000  57.5000 Du        
   7121 ****        34.0000  15.5000  57.7500 Du        
   7122 ****        34.0000  15.5000  58.0000 Du        
   7123 ****        34.0000  15.7500  57.5000 Du        
   7124 ****        34.0000  15.7500  57.7500 Du        
   7125 ****        34.0000  15.7500  58.0000 Du        
   7126 ****        34.0000  15.7500  58.2500 Du        
   7127 ****        34.0000  16.0000  57.5000 Du        
   7128 ****        34.0000  16.0000  57.7500 Du        
   7129 ****        34.0000  16.0000  58.0000 Du        
   7130 ****        34.0000  16.0000  58.2500 Du        
   7131 ****        34.0000  16.2500  57.5000 Du        
   7132 ****        34.0000  16.2500  57.7500 Du        
   7133 ****        34.0000  16.2500  58.0000 Du        
   7134 ****        34.0000  16.2500  58.2500 Du        
   7135 ****        34.0000  16.2500  58.5000 Du        
   7136 ****        34.0000  16.5000  57.7500 Du        
   7137 ****        34.0000  16.5000  58.0000 Du        
   7138 ****        34.0000  16.5000  58.2500 Du        
   7139 ****        34.0000  16.5000  58.5000 Du        
   7140 ****        34.0000  16.7500  57.7500 Du        
   7141 ****        34.0000  16.7500  58.0000 Du        
   7142 ****        34.0000  16.7500  58.2500 Du        
   7143 ****        34.0000  16.7500  58.5000 Du        
   7144 ****        34.0000  16.7500  58.7500 Du        
   7145 ****        34.0000  17.0000  57.7500 Du        
   7146 ****        34.0000  17.0000  58.0000 Du        
   7147 ****        34.0000  17.0000  58.2500 Du        
   7148 ****        34.0000  17.0000  58.5000 Du        
   7149 ****        34.0000  17.0000  58.7500 Du        
   7150 ****        34.0000  17.2500  57.7500 Du        
   7151 ****        34.0000  17.2500  58.0000 Du        
   7152 ****        34.0000  17.2500  58.2500 Du        
   7153 ****        34.0000  17.2500  58.5000 Du        
   7154 ****        34.0000  17.2500  58.7500 Du        
   7155 ****        34.0000  17.2500  59.0000 Du        
   7156 ****        34.0000  17.5000  57.7500 Du        
   7157 ****        34.0000  17.5000  58.0000 Du        
   7158 ****        34.0000  17.5000  58.2500 Du        
   7159 ****        34.0000  17.5000  58.5000 Du        
   7160 ****        34.0000  17.5000  58.7500 Du        
   7161 ****        34.0000  17.5000  59.0000 Du        
   7162 ****        34.0000  17.5000  59.2500 Du        
   7163 ****        34.0000  17.7500  57.7500 Du        
   7164 ****        34.0000  17.7500  58.0000 Du        
   7165 ****        34.0000  17.7500  58.2500 Du        
   7166 ****        34.0000  17.7500  58.5000 Du        
   7167 ****        34.0000  17.7500  58.7500 Du        
   7168 ****        34.0000  17.7500  59.0000 Du        
   7169 ****        34.0000  17.7500  59.2500 Du        
   7170 ****        34.0000  17.7500  59.5000 Du        
   7171 ****        34.0000  18.0000  57.7500 Du        
   7172 ****        34.0000  18.0000  58.0000 Du        
   7173 ****        34.0000  18.0000  58.2500 Du        
   7174 ****        34.0000  18.0000  58.5000 Du        
   7175 ****        34.0000  18.0000  58.7500 Du        
   7176 ****        34.0000  18.0000  59.0000 Du        
   7177 ****        34.0000  18.0000  59.2500 Du        
   7178 ****        34.0000  18.0000  59.5000 Du        
   7179 ****        34.0000  18.0000  59.7500 Du        
   7180 ****        34.0000  18.2500  57.5000 Du        
   7181 ****        34.0000  18.2500  57.7500 Du        
   7182 ****        34.0000  18.2500  58.0000 Du        
   7183 ****        34.0000  18.2500  58.2500 Du        
   7184 ****        34.0000  18.2500  58.5000 Du        
   7185 ****        34.0000  18.2500  58.7500 Du        
   7186 ****        34.0000  18.2500  59.0000 Du        
   7187 ****        34.0000  18.2500  59.2500 Du        
   7188 ****        34.0000  18.2500  59.5000 Du        
   7189 ****        34.0000  18.2500  59.7500 Du        
   7190 ****        34.0000  18.2500  60.0000 Du        
   7191 ****        34.0000  18.5000  57.5000 Du        
   7192 ****        34.0000  18.5000  57.7500 Du        
   7193 ****        34.0000  18.5000  58.0000 Du        
   7194 ****        34.0000  18.5000  58.2500 Du        
   7195 ****        34.0000  18.5000  58.5000 Du        
   7196 ****        34.0000  18.5000  58.7500 Du        
   7197 ****        34.0000  18.5000  59.0000 Du        
   7198 ****        34.0000  18.5000  59.2500 Du        
   7199 ****        34.0000  18.5000  59.5000 Du        
   7200 ****        34.0000  18.5000  59.7500 Du        
   7201 ****        34.0000  18.5000  60.0000 Du        
   7202 ****        34.0000  18.5000  60.2500 Du        
   7203 ****        34.0000  18.7500  57.5000 Du        
   7204 ****        34.0000  18.7500  57.7500 Du        
   7205 ****        34.0000  18.7500  58.0000 Du        
   7206 ****        34.0000  18.7500  58.2500 Du        
   7207 ****        34.0000  18.7500  58.5000 Du        
   7208 ****        34.0000  18.7500  58.7500 Du        
   7209 ****        34.0000  18.7500  59.0000 Du        
   7210 ****        34.0000  18.7500  59.2500 Du        
   7211 ****        34.0000  18.7500  59.5000 Du        
   7212 ****        34.0000  18.7500  59.7500 Du        
   7213 ****        34.0000  18.7500  60.0000 Du        
   7214 ****        34.0000  18.7500  60.2500 Du        
   7215 ****        34.0000  19.0000  57.5000 Du        
   7216 ****        34.0000  19.0000  57.7500 Du        
   7217 ****        34.0000  19.0000  58.0000 Du        
   7218 ****        34.0000  19.0000  58.2500 Du        
   7219 ****        34.0000  19.0000  58.5000 Du        
   7220 ****        34.0000  19.0000  58.7500 Du        
   7221 ****        34.0000  19.0000  59.0000 Du        
   7222 ****        34.0000  19.0000  59.2500 Du        
   7223 ****        34.0000  19.0000  59.5000 Du        
   7224 ****        34.0000  19.0000  59.7500 Du        
   7225 ****        34.0000  19.0000  60.0000 Du        
   7226 ****        34.0000  19.0000  60.2500 Du        
   7227 ****        34.0000  19.2500  57.5000 Du        
   7228 ****        34.0000  19.2500  57.7500 Du        
   7229 ****        34.0000  19.2500  58.0000 Du        
   7230 ****        34.0000  19.2500  58.2500 Du        
   7231 ****        34.0000  19.2500  58.5000 Du        
   7232 ****        34.0000  19.2500  58.7500 Du        
   7233 ****        34.0000  19.2500  59.0000 Du        
   7234 ****        34.0000  19.2500  59.2500 Du        
   7235 ****        34.0000  19.2500  59.5000 Du        
   7236 ****        34.0000  19.2500  59.7500 Du        
   7237 ****        34.0000  19.2500  60.0000 Du        
   7238 ****        34.0000  19.2500  60.2500 Du        
   7239 ****        34.0000  19.5000  57.5000 Du        
   7240 ****        34.0000  19.5000  57.7500 Du        
   7241 ****        34.0000  19.5000  58.0000 Du        
   7242 ****        34.0000  19.5000  58.2500 Du        
   7243 ****        34.0000  19.5000  58.5000 Du        
   7244 ****        34.0000  19.5000  58.7500 Du        
   7245 ****        34.0000  19.5000  59.0000 Du        
   7246 ****        34.0000  19.5000  59.2500 Du        
   7247 ****        34.0000  19.5000  59.5000 Du        
   7248 ****        34.0000  19.5000  59.7500 Du        
   7249 ****        34.0000  19.5000  60.0000 Du        
   7250 ****        34.0000  19.7500  57.7500 Du        
   7251 ****        34.0000  19.7500  58.0000 Du        
   7252 ****        34.0000  19.7500  58.2500 Du        
   7253 ****        34.0000  19.7500  58.5000 Du        
   7254 ****        34.0000  19.7500  58.7500 Du        
   7255 ****        34.0000  19.7500  59.0000 Du        
   7256 ****        34.0000  19.7500  59.2500 Du        
   7257 ****        34.0000  19.7500  59.5000 Du        
   7258 ****        34.0000  19.7500  59.7500 Du        
   7259 ****        34.0000  19.7500  60.0000 Du        
   7260 ****        34.0000  20.0000  57.7500 Du        
   7261 ****        34.0000  20.0000  58.0000 Du        
   7262 ****        34.0000  20.0000  58.2500 Du        
   7263 ****        34.0000  20.0000  58.5000 Du        
   7264 ****        34.0000  20.0000  58.7500 Du        
   7265 ****        34.0000  20.0000  59.0000 Du        
   7266 ****        34.0000  20.0000  59.2500 Du        
   7267 ****        34.0000  20.0000  59.5000 Du        
   7268 ****        34.0000  20.0000  59.7500 Du        
   7269 ****        34.0000  20.0000  60.0000 Du        
   7270 ****        34.0000  20.2500  58.0000 Du        
   7271 ****        34.0000  20.2500  58.2500 Du        
   7272 ****        34.0000  20.2500  58.5000 Du        
   7273 ****        34.0000  20.2500  58.7500 Du        
   7274 ****        34.0000  20.2500  59.0000 Du        
   7275 ****        34.0000  20.2500  59.2500 Du        
   7276 ****        34.0000  20.2500  59.5000 Du        
   7277 ****        34.0000  20.2500  59.7500 Du        
   7278 ****        34.0000  20.5000  58.0000 Du        
   7279 ****        34.0000  20.5000  58.2500 Du        
   7280 ****        34.0000  20.5000  58.5000 Du        
   7281 ****        34.0000  20.5000  58.7500 Du        
   7282 ****        34.0000  20.5000  59.0000 Du        
   7283 ****        34.0000  20.5000  59.2500 Du        
   7284 ****        34.0000  20.7500  58.0000 Du        
   7285 ****        34.0000  20.7500  58.2500 Du        
   7286 ****        34.0000  20.7500  58.5000 Du        
   7287 ****        34.0000  20.7500  58.7500 Du        
   7288 ****        34.0000  20.7500  59.0000 Du        
   7289 ****        34.0000  20.7500  59.2500 Du        
   7290 ****        34.0000  21.0000  58.2500 Du        
   7291 ****        34.0000  21.0000  58.5000 Du        
   7292 ****        34.0000  21.0000  58.7500 Du        
   7293 ****        34.0000  21.0000  59.0000 Du        
   7294 ****        34.0000  21.0000  59.2500 Du        
   7295 ****        34.0000  21.2500  58.5000 Du        
   7296 ****        34.0000  21.2500  58.7500 Du        
   7297 ****        34.0000  21.2500  59.0000 Du        
   7298 ****        34.2500  12.7500  56.0000 Du        
   7299 ****        34.2500  12.7500  56.2500 Du        
   7300 ****        34.2500  12.7500  56.5000 Du        
   7301 ****        34.2500  13.0000  55.7500 Du        
   7302 ****        34.2500  13.0000  56.0000 Du        
   7303 ****        34.2500  13.0000  56.2500 Du        
   7304 ****        34.2500  13.0000  56.5000 Du        
   7305 ****        34.2500  13.0000  56.7500 Du        
   7306 ****        34.2500  13.2500  56.0000 Du        
   7307 ****        34.2500  13.2500  56.2500 Du        
   7308 ****        34.2500  13.2500  56.5000 Du        
   7309 ****        34.2500  13.2500  56.7500 Du        
   7310 ****        34.2500  13.2500  57.0000 Du        
   7311 ****        34.2500  13.5000  56.2500 Du        
   7312 ****        34.2500  13.5000  56.5000 Du        
   7313 ****        34.2500  13.5000  56.7500 Du        
   7314 ****        34.2500  13.5000  57.0000 Du        
   7315 ****        34.2500  13.5000  57.2500 Du        
   7316 ****        34.2500  13.7500  56.2500 Du        
   7317 ****        34.2500  13.7500  56.5000 Du        
   7318 ****        34.2500  13.7500  56.7500 Du        
   7319 ****        34.2500  13.7500  57.0000 Du        
   7320 ****        34.2500  13.7500  57.2500 Du        
   7321 ****        34.2500  13.7500  57.5000 Du        
   7322 ****        34.2500  14.0000  56.5000 Du        
   7323 ****        34.2500  14.0000  56.7500 Du        
   7324 ****        34.2500  14.0000  57.0000 Du        
   7325 ****        34.2500  14.0000  57.2500 Du        
   7326 ****        34.2500  14.0000  57.5000 Du        
   7327 ****        34.2500  14.2500  56.5000 Du        
   7328 ****        34.2500  14.2500  56.7500 Du        
   7329 ****        34.2500  14.2500  57.0000 Du        
   7330 ****        34.2500  14.2500  57.2500 Du        
   7331 ****        34.2500  14.2500  57.5000 Du        
   7332 ****        34.2500  14.2500  57.7500 Du        
   7333 ****        34.2500  14.5000  56.7500 Du        
   7334 ****        34.2500  14.5000  57.0000 Du        
   7335 ****        34.2500  14.5000  57.2500 Du        
   7336 ****        34.2500  14.5000  57.5000 Du        
   7337 ****        34.2500  14.5000  57.7500 Du        
   7338 ****        34.2500  14.7500  57.0000 Du        
   7339 ****        34.2500  14.7500  57.2500 Du        
   7340 ****        34.2500  14.7500  57.5000 Du        
   7341 ****        34.2500  14.7500  57.7500 Du        
   7342 ****        34.2500  15.0000  57.0000 Du        
   7343 ****        34.2500  15.0000  57.2500 Du        
   7344 ****        34.2500  15.0000  57.5000 Du        
   7345 ****        34.2500  15.0000  57.7500 Du        
   7346 ****        34.2500  15.0000  58.0000 Du        
   7347 ****        34.2500  15.2500  57.2500 Du        
   7348 ****        34.2500  15.2500  57.5000 Du        
   7349 ****        34.2500  15.2500  57.7500 Du        
   7350 ****        34.2500  15.2500  58.0000 Du        
   7351 ****        34.2500  15.5000  57.2500 Du        
   7352 ****        34.2500  15.5000  57.5000 Du        
   7353 ****        34.2500  15.5000  57.7500 Du        
   7354 ****        34.2500  15.5000  58.0000 Du        
   7355 ****        34.2500  15.5000  58.2500 Du        
   7356 ****        34.2500  15.7500  57.5000 Du        
   7357 ****        34.2500  15.7500  57.7500 Du        
   7358 ****        34.2500  15.7500  58.0000 Du        
   7359 ****        34.2500  15.7500  58.2500 Du        
   7360 ****        34.2500  16.0000  57.5000 Du        
   7361 ****        34.2500  16.0000  57.7500 Du        
   7362 ****        34.2500  16.0000  58.0000 Du        
   7363 ****        34.2500  16.0000  58.2500 Du        
   7364 ****        34.2500  16.0000  58.5000 Du        
   7365 ****        34.2500  16.2500  57.5000 Du        
   7366 ****        34.2500  16.2500  57.7500 Du        
   7367 ****        34.2500  16.2500  58.0000 Du        
   7368 ****        34.2500  16.2500  58.2500 Du        
   7369 ****        34.2500  16.2500  58.5000 Du        
   7370 ****        34.2500  16.2500  58.7500 Du        
   7371 ****        34.2500  16.5000  57.7500 Du        
   7372 ****        34.2500  16.5000  58.0000 Du        
   7373 ****        34.2500  16.5000  58.2500 Du        
   7374 ****        34.2500  16.5000  58.5000 Du        
   7375 ****        34.2500  16.5000  58.7500 Du        
   7376 ****        34.2500  16.7500  57.7500 Du        
   7377 ****        34.2500  16.7500  58.0000 Du        
   7378 ****        34.2500  16.7500  58.2500 Du        
   7379 ****        34.2500  16.7500  58.5000 Du        
   7380 ****        34.2500  16.7500  58.7500 Du        
   7381 ****        34.2500  16.7500  59.0000 Du        
   7382 ****        34.2500  17.0000  57.7500 Du        
   7383 ****        34.2500  17.0000  58.0000 Du        
   7384 ****        34.2500  17.0000  58.2500 Du        
   7385 ****        34.2500  17.0000  58.5000 Du        
   7386 ****        34.2500  17.0000  58.7500 Du        
   7387 ****        34.2500  17.0000  59.0000 Du        
   7388 ****        34.2500  17.2500  57.7500 Du        
   7389 ****        34.2500  17.2500  58.0000 Du        
   7390 ****        34.2500  17.2500  58.2500 Du        
   7391 ****        34.2500  17.2500  58.5000 Du        
   7392 ****        34.2500  17.2500  58.7500 Du        
   7393 ****        34.2500  17.2500  59.0000 Du        
   7394 ****        34.2500  17.2500  59.2500 Du        
   7395 ****        34.2500  17.5000  57.7500 Du        
   7396 ****        34.2500  17.5000  58.0000 Du        
   7397 ****        34.2500  17.5000  58.2500 Du        
   7398 ****        34.2500  17.5000  58.5000 Du        
   7399 ****        34.2500  17.5000  58.7500 Du        
   7400 ****        34.2500  17.5000  59.0000 Du        
   7401 ****        34.2500  17.5000  59.2500 Du        
   7402 ****        34.2500  17.7500  57.7500 Du        
   7403 ****        34.2500  17.7500  58.0000 Du        
   7404 ****        34.2500  17.7500  58.2500 Du        
   7405 ****        34.2500  17.7500  58.5000 Du        
   7406 ****        34.2500  17.7500  58.7500 Du        
   7407 ****        34.2500  17.7500  59.0000 Du        
   7408 ****        34.2500  17.7500  59.2500 Du        
   7409 ****        34.2500  17.7500  59.5000 Du        
   7410 ****        34.2500  17.7500  59.7500 Du        
   7411 ****        34.2500  18.0000  57.7500 Du        
   7412 ****        34.2500  18.0000  58.0000 Du        
   7413 ****        34.2500  18.0000  58.2500 Du        
   7414 ****        34.2500  18.0000  58.5000 Du        
   7415 ****        34.2500  18.0000  58.7500 Du        
   7416 ****        34.2500  18.0000  59.0000 Du        
   7417 ****        34.2500  18.0000  59.2500 Du        
   7418 ****        34.2500  18.0000  59.5000 Du        
   7419 ****        34.2500  18.0000  59.7500 Du        
   7420 ****        34.2500  18.0000  60.0000 Du        
   7421 ****        34.2500  18.2500  57.7500 Du        
   7422 ****        34.2500  18.2500  58.0000 Du        
   7423 ****        34.2500  18.2500  58.2500 Du        
   7424 ****        34.2500  18.2500  58.5000 Du        
   7425 ****        34.2500  18.2500  58.7500 Du        
   7426 ****        34.2500  18.2500  59.0000 Du        
   7427 ****        34.2500  18.2500  59.2500 Du        
   7428 ****        34.2500  18.2500  59.5000 Du        
   7429 ****        34.2500  18.2500  59.7500 Du        
   7430 ****        34.2500  18.2500  60.0000 Du        
   7431 ****        34.2500  18.2500  60.2500 Du        
   7432 ****        34.2500  18.5000  57.5000 Du        
   7433 ****        34.2500  18.5000  57.7500 Du        
   7434 ****        34.2500  18.5000  58.0000 Du        
   7435 ****        34.2500  18.5000  58.2500 Du        
   7436 ****        34.2500  18.5000  58.5000 Du        
   7437 ****        34.2500  18.5000  58.7500 Du        
   7438 ****        34.2500  18.5000  59.0000 Du        
   7439 ****        34.2500  18.5000  59.2500 Du        
   7440 ****        34.2500  18.5000  59.5000 Du        
   7441 ****        34.2500  18.5000  59.7500 Du        
   7442 ****        34.2500  18.5000  60.0000 Du        
   7443 ****        34.2500  18.5000  60.2500 Du        
   7444 ****        34.2500  18.7500  57.5000 Du        
   7445 ****        34.2500  18.7500  57.7500 Du        
   7446 ****        34.2500  18.7500  58.0000 Du        
   7447 ****        34.2500  18.7500  58.2500 Du        
   7448 ****        34.2500  18.7500  58.5000 Du        
   7449 ****        34.2500  18.7500  58.7500 Du        
   7450 ****        34.2500  18.7500  59.0000 Du        
   7451 ****        34.2500  18.7500  59.2500 Du        
   7452 ****        34.2500  18.7500  59.5000 Du        
   7453 ****        34.2500  18.7500  59.7500 Du        
   7454 ****        34.2500  18.7500  60.0000 Du        
   7455 ****        34.2500  18.7500  60.2500 Du        
   7456 ****        34.2500  19.0000  57.5000 Du        
   7457 ****        34.2500  19.0000  57.7500 Du        
   7458 ****        34.2500  19.0000  58.0000 Du        
   7459 ****        34.2500  19.0000  58.2500 Du        
   7460 ****        34.2500  19.0000  58.5000 Du        
   7461 ****        34.2500  19.0000  58.7500 Du        
   7462 ****        34.2500  19.0000  59.0000 Du        
   7463 ****        34.2500  19.0000  59.2500 Du        
   7464 ****        34.2500  19.0000  59.5000 Du        
   7465 ****        34.2500  19.0000  59.7500 Du        
   7466 ****        34.2500  19.0000  60.0000 Du        
   7467 ****        34.2500  19.0000  60.2500 Du        
   7468 ****        34.2500  19.2500  57.5000 Du        
   7469 ****        34.2500  19.2500  57.7500 Du        
   7470 ****        34.2500  19.2500  58.0000 Du        
   7471 ****        34.2500  19.2500  58.2500 Du        
   7472 ****        34.2500  19.2500  58.5000 Du        
   7473 ****        34.2500  19.2500  58.7500 Du        
   7474 ****        34.2500  19.2500  59.0000 Du        
   7475 ****        34.2500  19.2500  59.2500 Du        
   7476 ****        34.2500  19.2500  59.5000 Du        
   7477 ****        34.2500  19.2500  59.7500 Du        
   7478 ****        34.2500  19.2500  60.0000 Du        
   7479 ****        34.2500  19.2500  60.2500 Du        
   7480 ****        34.2500  19.5000  57.7500 Du        
   7481 ****        34.2500  19.5000  58.0000 Du        
   7482 ****        34.2500  19.5000  58.2500 Du        
   7483 ****        34.2500  19.5000  58.5000 Du        
   7484 ****        34.2500  19.5000  58.7500 Du        
   7485 ****        34.2500  19.5000  59.0000 Du        
   7486 ****        34.2500  19.5000  59.2500 Du        
   7487 ****        34.2500  19.5000  59.5000 Du        
   7488 ****        34.2500  19.5000  59.7500 Du        
   7489 ****        34.2500  19.5000  60.0000 Du        
   7490 ****        34.2500  19.7500  57.7500 Du        
   7491 ****        34.2500  19.7500  58.0000 Du        
   7492 ****        34.2500  19.7500  58.2500 Du        
   7493 ****        34.2500  19.7500  58.5000 Du        
   7494 ****        34.2500  19.7500  58.7500 Du        
   7495 ****        34.2500  19.7500  59.0000 Du        
   7496 ****        34.2500  19.7500  59.2500 Du        
   7497 ****        34.2500  19.7500  59.5000 Du        
   7498 ****        34.2500  19.7500  59.7500 Du        
   7499 ****        34.2500  19.7500  60.0000 Du        
   7500 ****        34.2500  20.0000  58.0000 Du        
   7501 ****        34.2500  20.0000  58.2500 Du        
   7502 ****        34.2500  20.0000  58.5000 Du        
   7503 ****        34.2500  20.0000  58.7500 Du        
   7504 ****        34.2500  20.0000  59.0000 Du        
   7505 ****        34.2500  20.0000  59.2500 Du        
   7506 ****        34.2500  20.0000  59.5000 Du        
   7507 ****        34.2500  20.0000  59.7500 Du        
   7508 ****        34.2500  20.0000  60.0000 Du        
   7509 ****        34.2500  20.2500  58.0000 Du        
   7510 ****        34.2500  20.2500  58.2500 Du        
   7511 ****        34.2500  20.2500  58.5000 Du        
   7512 ****        34.2500  20.2500  58.7500 Du        
   7513 ****        34.2500  20.2500  59.0000 Du        
   7514 ****        34.2500  20.2500  59.2500 Du        
   7515 ****        34.2500  20.2500  59.5000 Du        
   7516 ****        34.2500  20.2500  59.7500 Du        
   7517 ****        34.2500  20.2500  60.0000 Du        
   7518 ****        34.2500  20.5000  58.0000 Du        
   7519 ****        34.2500  20.5000  58.2500 Du        
   7520 ****        34.2500  20.5000  58.5000 Du        
   7521 ****        34.2500  20.5000  58.7500 Du        
   7522 ****        34.2500  20.5000  59.0000 Du        
   7523 ****        34.2500  20.5000  59.2500 Du        
   7524 ****        34.2500  20.5000  59.5000 Du        
   7525 ****        34.2500  20.5000  59.7500 Du        
   7526 ****        34.2500  20.7500  58.2500 Du        
   7527 ****        34.2500  20.7500  58.5000 Du        
   7528 ****        34.2500  20.7500  58.7500 Du        
   7529 ****        34.2500  20.7500  59.0000 Du        
   7530 ****        34.2500  20.7500  59.2500 Du        
   7531 ****        34.2500  20.7500  59.7500 Du        
   7532 ****        34.2500  21.0000  58.2500 Du        
   7533 ****        34.2500  21.0000  58.5000 Du        
   7534 ****        34.2500  21.0000  58.7500 Du        
   7535 ****        34.2500  21.0000  59.0000 Du        
   7536 ****        34.2500  21.0000  59.2500 Du        
   7537 ****        34.2500  21.2500  58.7500 Du        
   7538 ****        34.2500  21.2500  59.0000 Du        
   7539 ****        34.5000  12.7500  56.2500 Du        
   7540 ****        34.5000  12.7500  56.5000 Du        
   7541 ****        34.5000  13.0000  56.0000 Du        
   7542 ****        34.5000  13.0000  56.2500 Du        
   7543 ****        34.5000  13.0000  56.5000 Du        
   7544 ****        34.5000  13.0000  56.7500 Du        
   7545 ****        34.5000  13.0000  57.0000 Du        
   7546 ****        34.5000  13.2500  56.0000 Du        
   7547 ****        34.5000  13.2500  56.2500 Du        
   7548 ****        34.5000  13.2500  56.5000 Du        
   7549 ****        34.5000  13.2500  56.7500 Du        
   7550 ****        34.5000  13.2500  57.0000 Du        
   7551 ****        34.5000  13.2500  57.2500 Du        
   7552 ****        34.5000  13.5000  56.0000 Du        
   7553 ****        34.5000  13.5000  56.2500 Du        
   7554 ****        34.5000  13.5000  56.5000 Du        
   7555 ****        34.5000  13.5000  56.7500 Du        
   7556 ****        34.5000  13.5000  57.0000 Du        
   7557 ****        34.5000  13.5000  57.2500 Du        
   7558 ****        34.5000  13.5000  57.5000 Du        
   7559 ****        34.5000  13.7500  56.2500 Du        
   7560 ****        34.5000  13.7500  56.5000 Du        
   7561 ****        34.5000  13.7500  56.7500 Du        
   7562 ****        34.5000  13.7500  57.0000 Du        
   7563 ****        34.5000  13.7500  57.2500 Du        
   7564 ****        34.5000  13.7500  57.5000 Du        
   7565 ****        34.5000  14.0000  56.5000 Du        
   7566 ****        34.5000  14.0000  56.7500 Du        
   7567 ****        34.5000  14.0000  57.0000 Du        
   7568 ****        34.5000  14.0000  57.2500 Du        
   7569 ****        34.5000  14.0000  57.5000 Du        
   7570 ****        34.5000  14.0000  57.7500 Du        
   7571 ****        34.5000  14.2500  56.5000 Du        
   7572 ****        34.5000  14.2500  56.7500 Du        
   7573 ****        34.5000  14.2500  57.0000 Du        
   7574 ****        34.5000  14.2500  57.2500 Du        
   7575 ****        34.5000  14.2500  57.5000 Du        
   7576 ****        34.5000  14.2500  57.7500 Du        
   7577 ****        34.5000  14.5000  56.7500 Du        
   7578 ****        34.5000  14.5000  57.0000 Du        
   7579 ****        34.5000  14.5000  57.2500 Du        
   7580 ****        34.5000  14.5000  57.5000 Du        
   7581 ****        34.5000  14.5000  57.7500 Du        
   7582 ****        34.5000  14.7500  56.7500 Du        
   7583 ****        34.5000  14.7500  57.0000 Du        
   7584 ****        34.5000  14.7500  57.2500 Du        
   7585 ****        34.5000  14.7500  57.5000 Du        
   7586 ****        34.5000  14.7500  57.7500 Du        
   7587 ****        34.5000  14.7500  58.0000 Du        
   7588 ****        34.5000  15.0000  57.0000 Du        
   7589 ****        34.5000  15.0000  57.2500 Du        
   7590 ****        34.5000  15.0000  57.5000 Du        
   7591 ****        34.5000  15.0000  57.7500 Du        
   7592 ****        34.5000  15.0000  58.0000 Du        
   7593 ****        34.5000  15.2500  57.2500 Du        
   7594 ****        34.5000  15.2500  57.5000 Du        
   7595 ****        34.5000  15.2500  57.7500 Du        
   7596 ****        34.5000  15.2500  58.0000 Du        
   7597 ****        34.5000  15.2500  58.2500 Du        
   7598 ****        34.5000  15.5000  57.2500 Du        
   7599 ****        34.5000  15.5000  57.5000 Du        
   7600 ****        34.5000  15.5000  57.7500 Du        
   7601 ****        34.5000  15.5000  58.0000 Du        
   7602 ****        34.5000  15.5000  58.2500 Du        
   7603 ****        34.5000  15.7500  57.5000 Du        
   7604 ****        34.5000  15.7500  57.7500 Du        
   7605 ****        34.5000  15.7500  58.0000 Du        
   7606 ****        34.5000  15.7500  58.2500 Du        
   7607 ****        34.5000  15.7500  58.5000 Du        
   7608 ****        34.5000  16.0000  57.5000 Du        
   7609 ****        34.5000  16.0000  57.7500 Du        
   7610 ****        34.5000  16.0000  58.0000 Du        
   7611 ****        34.5000  16.0000  58.2500 Du        
   7612 ****        34.5000  16.0000  58.5000 Du        
   7613 ****        34.5000  16.0000  58.7500 Du        
   7614 ****        34.5000  16.2500  57.7500 Du        
   7615 ****        34.5000  16.2500  58.0000 Du        
   7616 ****        34.5000  16.2500  58.2500 Du        
   7617 ****        34.5000  16.2500  58.5000 Du        
   7618 ****        34.5000  16.2500  58.7500 Du        
   7619 ****        34.5000  16.5000  57.7500 Du        
   7620 ****        34.5000  16.5000  58.0000 Du        
   7621 ****        34.5000  16.5000  58.2500 Du        
   7622 ****        34.5000  16.5000  58.5000 Du        
   7623 ****        34.5000  16.5000  58.7500 Du        
   7624 ****        34.5000  16.5000  59.0000 Du        
   7625 ****        34.5000  16.7500  57.7500 Du        
   7626 ****        34.5000  16.7500  58.0000 Du        
   7627 ****        34.5000  16.7500  58.2500 Du        
   7628 ****        34.5000  16.7500  58.5000 Du        
   7629 ****        34.5000  16.7500  58.7500 Du        
   7630 ****        34.5000  16.7500  59.0000 Du        
   7631 ****        34.5000  17.0000  57.7500 Du        
   7632 ****        34.5000  17.0000  58.0000 Du        
   7633 ****        34.5000  17.0000  58.2500 Du        
   7634 ****        34.5000  17.0000  58.5000 Du        
   7635 ****        34.5000  17.0000  58.7500 Du        
   7636 ****        34.5000  17.0000  59.0000 Du        
   7637 ****        34.5000  17.0000  59.2500 Du        
   7638 ****        34.5000  17.2500  57.7500 Du        
   7639 ****        34.5000  17.2500  58.0000 Du        
   7640 ****        34.5000  17.2500  58.2500 Du        
   7641 ****        34.5000  17.2500  58.5000 Du        
   7642 ****        34.5000  17.2500  58.7500 Du        
   7643 ****        34.5000  17.2500  59.0000 Du        
   7644 ****        34.5000  17.2500  59.2500 Du        
   7645 ****        34.5000  17.2500  59.5000 Du        
   7646 ****        34.5000  17.5000  57.7500 Du        
   7647 ****        34.5000  17.5000  58.0000 Du        
   7648 ****        34.5000  17.5000  58.2500 Du        
   7649 ****        34.5000  17.5000  58.5000 Du        
   7650 ****        34.5000  17.5000  58.7500 Du        
   7651 ****        34.5000  17.5000  59.0000 Du        
   7652 ****        34.5000  17.5000  59.2500 Du        
   7653 ****        34.5000  17.5000  59.5000 Du        
   7654 ****        34.5000  17.5000  59.7500 Du        
   7655 ****        34.5000  17.7500  57.7500 Du        
   7656 ****        34.5000  17.7500  58.0000 Du        
   7657 ****        34.5000  17.7500  58.2500 Du        
   7658 ****        34.5000  17.7500  58.5000 Du        
   7659 ****        34.5000  17.7500  58.7500 Du        
   7660 ****        34.5000  17.7500  59.0000 Du        
   7661 ****        34.5000  17.7500  59.2500 Du        
   7662 ****        34.5000  17.7500  59.5000 Du        
   7663 ****        34.5000  17.7500  59.7500 Du        
   7664 ****        34.5000  17.7500  60.0000 Du        
   7665 ****        34.5000  18.0000  57.7500 Du        
   7666 ****        34.5000  18.0000  58.0000 Du        
   7667 ****        34.5000  18.0000  58.2500 Du        
   7668 ****        34.5000  18.0000  58.5000 Du        
   7669 ****        34.5000  18.0000  58.7500 Du        
   7670 ****        34.5000  18.0000  59.0000 Du        
   7671 ****        34.5000  18.0000  59.2500 Du        
   7672 ****        34.5000  18.0000  59.5000 Du        
   7673 ****        34.5000  18.0000  59.7500 Du        
   7674 ****        34.5000  18.0000  60.0000 Du        
   7675 ****        34.5000  18.0000  60.2500 Du        
   7676 ****        34.5000  18.2500  57.7500 Du        
   7677 ****        34.5000  18.2500  58.0000 Du        
   7678 ****        34.5000  18.2500  58.2500 Du        
   7679 ****        34.5000  18.2500  58.5000 Du        
   7680 ****        34.5000  18.2500  58.7500 Du        
   7681 ****        34.5000  18.2500  59.0000 Du        
   7682 ****        34.5000  18.2500  59.2500 Du        
   7683 ****        34.5000  18.2500  59.5000 Du        
   7684 ****        34.5000  18.2500  59.7500 Du        
   7685 ****        34.5000  18.2500  60.0000 Du        
   7686 ****        34.5000  18.2500  60.2500 Du        
   7687 ****        34.5000  18.5000  57.7500 Du        
   7688 ****        34.5000  18.5000  58.0000 Du        
   7689 ****        34.5000  18.5000  58.2500 Du        
   7690 ****        34.5000  18.5000  58.5000 Du        
   7691 ****        34.5000  18.5000  58.7500 Du        
   7692 ****        34.5000  18.5000  59.0000 Du        
   7693 ****        34.5000  18.5000  59.2500 Du        
   7694 ****        34.5000  18.5000  59.5000 Du        
   7695 ****        34.5000  18.5000  59.7500 Du        
   7696 ****        34.5000  18.5000  60.0000 Du        
   7697 ****        34.5000  18.7500  57.7500 Du        
   7698 ****        34.5000  18.7500  58.0000 Du        
   7699 ****        34.5000  18.7500  58.2500 Du        
   7700 ****        34.5000  18.7500  58.5000 Du        
   7701 ****        34.5000  18.7500  58.7500 Du        
   7702 ****        34.5000  18.7500  59.0000 Du        
   7703 ****        34.5000  18.7500  59.2500 Du        
   7704 ****        34.5000  18.7500  59.5000 Du        
   7705 ****        34.5000  18.7500  59.7500 Du        
   7706 ****        34.5000  18.7500  60.0000 Du        
   7707 ****        34.5000  19.0000  57.7500 Du        
   7708 ****        34.5000  19.0000  58.0000 Du        
   7709 ****        34.5000  19.0000  58.2500 Du        
   7710 ****        34.5000  19.0000  58.5000 Du        
   7711 ****        34.5000  19.0000  58.7500 Du        
   7712 ****        34.5000  19.0000  59.0000 Du        
   7713 ****        34.5000  19.0000  59.2500 Du        
   7714 ****        34.5000  19.0000  59.5000 Du        
   7715 ****        34.5000  19.0000  59.7500 Du        
   7716 ****        34.5000  19.0000  60.0000 Du        
   7717 ****        34.5000  19.2500  57.7500 Du        
   7718 ****        34.5000  19.2500  58.0000 Du        
   7719 ****        34.5000  19.2500  58.2500 Du        
   7720 ****        34.5000  19.2500  58.5000 Du        
   7721 ****        34.5000  19.2500  58.7500 Du        
   7722 ****        34.5000  19.2500  59.0000 Du        
   7723 ****        34.5000  19.2500  59.2500 Du        
   7724 ****        34.5000  19.2500  59.5000 Du        
   7725 ****        34.5000  19.2500  59.7500 Du        
   7726 ****        34.5000  19.2500  60.0000 Du        
   7727 ****        34.5000  19.5000  58.0000 Du        
   7728 ****        34.5000  19.5000  58.2500 Du        
   7729 ****        34.5000  19.5000  58.5000 Du        
   7730 ****        34.5000  19.5000  58.7500 Du        
   7731 ****        34.5000  19.5000  59.0000 Du        
   7732 ****        34.5000  19.5000  59.2500 Du        
   7733 ****        34.5000  19.5000  59.5000 Du        
   7734 ****        34.5000  19.5000  59.7500 Du        
   7735 ****        34.5000  19.5000  60.0000 Du        
   7736 ****        34.5000  19.7500  58.0000 Du        
   7737 ****        34.5000  19.7500  58.2500 Du        
   7738 ****        34.5000  19.7500  58.5000 Du        
   7739 ****        34.5000  19.7500  58.7500 Du        
   7740 ****        34.5000  19.7500  59.0000 Du        
   7741 ****        34.5000  19.7500  59.2500 Du        
   7742 ****        34.5000  19.7500  59.5000 Du        
   7743 ****        34.5000  19.7500  59.7500 Du        
   7744 ****        34.5000  19.7500  60.0000 Du        
   7745 ****        34.5000  20.0000  58.2500 Du        
   7746 ****        34.5000  20.0000  58.5000 Du        
   7747 ****        34.5000  20.0000  58.7500 Du        
   7748 ****        34.5000  20.0000  59.0000 Du        
   7749 ****        34.5000  20.0000  59.2500 Du        
   7750 ****        34.5000  20.0000  59.5000 Du        
   7751 ****        34.5000  20.0000  59.7500 Du        
   7752 ****        34.5000  20.0000  60.0000 Du        
   7753 ****        34.5000  20.2500  58.7500 Du        
   7754 ****        34.5000  20.2500  59.0000 Du        
   7755 ****        34.5000  20.2500  59.2500 Du        
   7756 ****        34.5000  20.2500  59.5000 Du        
   7757 ****        34.5000  20.2500  59.7500 Du        
   7758 ****        34.5000  20.2500  60.0000 Du        
   7759 ****        34.5000  20.5000  59.0000 Du        
   7760 ****        34.5000  20.5000  59.2500 Du        
   7761 ****        34.5000  20.5000  59.5000 Du        
   7762 ****        34.5000  20.5000  59.7500 Du        
   7763 ****        34.5000  20.5000  60.0000 Du        
   7764 ****        34.5000  20.7500  59.0000 Du        
   7765 ****        34.5000  20.7500  59.2500 Du        
   7766 ****        34.5000  20.7500  59.7500 Du        
   7767 ****        34.5000  20.7500  60.0000 Du        
   7768 ****        34.5000  21.0000  59.0000 Du        
   7769 ****        34.5000  21.0000  59.2500 Du        
   7770 ****        34.5000  21.0000  59.7500 Du        
   7771 ****        34.5000  21.0000  60.0000 Du        
   7772 ****        34.5000  21.2500  60.0000 Du        
   7773 ****        34.7500  12.7500  56.5000 Du        
   7774 ****        34.7500  13.0000  56.0000 Du        
   7775 ****        34.7500  13.0000  56.2500 Du        
   7776 ****        34.7500  13.0000  56.5000 Du        
   7777 ****        34.7500  13.0000  56.7500 Du        
   7778 ****        34.7500  13.0000  57.0000 Du        
   7779 ****        34.7500  13.2500  56.0000 Du        
   7780 ****        34.7500  13.2500  56.2500 Du        
   7781 ****        34.7500  13.2500  56.5000 Du        
   7782 ****        34.7500  13.2500  56.7500 Du        
   7783 ****        34.7500  13.2500  57.0000 Du        
   7784 ****        34.7500  13.2500  57.2500 Du        
   7785 ****        34.7500  13.5000  56.0000 Du        
   7786 ****        34.7500  13.5000  56.2500 Du        
   7787 ****        34.7500  13.5000  56.5000 Du        
   7788 ****        34.7500  13.5000  56.7500 Du        
   7789 ****        34.7500  13.5000  57.0000 Du        
   7790 ****        34.7500  13.5000  57.2500 Du        
   7791 ****        34.7500  13.5000  57.5000 Du        
   7792 ****        34.7500  13.7500  56.2500 Du        
   7793 ****        34.7500  13.7500  56.5000 Du        
   7794 ****        34.7500  13.7500  56.7500 Du        
   7795 ****        34.7500  13.7500  57.0000 Du        
   7796 ****        34.7500  13.7500  57.2500 Du        
   7797 ****        34.7500  13.7500  57.5000 Du        
   7798 ****        34.7500  13.7500  57.7500 Du        
   7799 ****        34.7500  14.0000  56.2500 Du        
   7800 ****        34.7500  14.0000  56.5000 Du        
   7801 ****        34.7500  14.0000  56.7500 Du        
   7802 ****        34.7500  14.0000  57.0000 Du        
   7803 ****        34.7500  14.0000  57.2500 Du        
   7804 ****        34.7500  14.0000  57.5000 Du        
   7805 ****        34.7500  14.0000  57.7500 Du        
   7806 ****        34.7500  14.2500  56.5000 Du        
   7807 ****        34.7500  14.2500  56.7500 Du        
   7808 ****        34.7500  14.2500  57.0000 Du        
   7809 ****        34.7500  14.2500  57.2500 Du        
   7810 ****        34.7500  14.2500  57.5000 Du        
   7811 ****        34.7500  14.2500  57.7500 Du        
   7812 ****        34.7500  14.2500  58.0000 Du        
   7813 ****        34.7500  14.5000  56.7500 Du        
   7814 ****        34.7500  14.5000  57.0000 Du        
   7815 ****        34.7500  14.5000  57.2500 Du        
   7816 ****        34.7500  14.5000  57.5000 Du        
   7817 ****        34.7500  14.5000  57.7500 Du        
   7818 ****        34.7500  14.5000  58.0000 Du        
   7819 ****        34.7500  14.7500  56.7500 Du        
   7820 ****        34.7500  14.7500  57.0000 Du        
   7821 ****        34.7500  14.7500  57.2500 Du        
   7822 ****        34.7500  14.7500  57.5000 Du        
   7823 ****        34.7500  14.7500  57.7500 Du        
   7824 ****        34.7500  14.7500  58.0000 Du        
   7825 ****        34.7500  15.0000  57.0000 Du        
   7826 ****        34.7500  15.0000  57.2500 Du        
   7827 ****        34.7500  15.0000  57.5000 Du        
   7828 ****        34.7500  15.0000  57.7500 Du        
   7829 ****        34.7500  15.0000  58.0000 Du        
   7830 ****        34.7500  15.0000  58.2500 Du        
   7831 ****        34.7500  15.2500  57.2500 Du        
   7832 ****        34.7500  15.2500  57.5000 Du        
   7833 ****        34.7500  15.2500  57.7500 Du        
   7834 ****        34.7500  15.2500  58.0000 Du        
   7835 ****        34.7500  15.2500  58.2500 Du        
   7836 ****        34.7500  15.5000  57.2500 Du        
   7837 ****        34.7500  15.5000  57.5000 Du        
   7838 ****        34.7500  15.5000  57.7500 Du        
   7839 ****        34.7500  15.5000  58.0000 Du        
   7840 ****        34.7500  15.5000  58.2500 Du        
   7841 ****        34.7500  15.5000  58.5000 Du        
   7842 ****        34.7500  15.7500  57.5000 Du        
   7843 ****        34.7500  15.7500  57.7500 Du        
   7844 ****        34.7500  15.7500  58.0000 Du        
   7845 ****        34.7500  15.7500  58.2500 Du        
   7846 ****        34.7500  15.7500  58.5000 Du        
   7847 ****        34.7500  15.7500  58.7500 Du        
   7848 ****        34.7500  16.0000  57.5000 Du        
   7849 ****        34.7500  16.0000  57.7500 Du        
   7850 ****        34.7500  16.0000  58.0000 Du        
   7851 ****        34.7500  16.0000  58.2500 Du        
   7852 ****        34.7500  16.0000  58.5000 Du        
   7853 ****        34.7500  16.0000  58.7500 Du        
   7854 ****        34.7500  16.0000  59.0000 Du        
   7855 ****        34.7500  16.2500  57.7500 Du        
   7856 ****        34.7500  16.2500  58.0000 Du        
   7857 ****        34.7500  16.2500  58.2500 Du        
   7858 ****        34.7500  16.2500  58.5000 Du        
   7859 ****        34.7500  16.2500  58.7500 Du        
   7860 ****        34.7500  16.2500  59.0000 Du        
   7861 ****        34.7500  16.5000  57.7500 Du        
   7862 ****        34.7500  16.5000  58.0000 Du        
   7863 ****        34.7500  16.5000  58.2500 Du        
   7864 ****        34.7500  16.5000  58.5000 Du        
   7865 ****        34.7500  16.5000  58.7500 Du        
   7866 ****        34.7500  16.5000  59.0000 Du        
   7867 ****        34.7500  16.5000  59.2500 Du        
   7868 ****        34.7500  16.7500  57.7500 Du        
   7869 ****        34.7500  16.7500  58.0000 Du        
   7870 ****        34.7500  16.7500  58.2500 Du        
   7871 ****        34.7500  16.7500  58.5000 Du        
   7872 ****        34.7500  16.7500  58.7500 Du        
   7873 ****        34.7500  16.7500  59.0000 Du        
   7874 ****        34.7500  16.7500  59.2500 Du        
   7875 ****        34.7500  17.0000  57.7500 Du        
   7876 ****        34.7500  17.0000  58.0000 Du        
   7877 ****        34.7500  17.0000  58.2500 Du        
   7878 ****        34.7500  17.0000  58.5000 Du        
   7879 ****        34.7500  17.0000  58.7500 Du        
   7880 ****        34.7500  17.0000  59.0000 Du        
   7881 ****        34.7500  17.0000  59.2500 Du        
   7882 ****        34.7500  17.0000  59.5000 Du        
   7883 ****        34.7500  17.2500  57.7500 Du        
   7884 ****        34.7500  17.2500  58.0000 Du        
   7885 ****        34.7500  17.2500  58.2500 Du        
   7886 ****        34.7500  17.2500  58.5000 Du        
   7887 ****        34.7500  17.2500  58.7500 Du        
   7888 ****        34.7500  17.2500  59.0000 Du        
   7889 ****        34.7500  17.2500  59.2500 Du        
   7890 ****        34.7500  17.2500  59.5000 Du        
   7891 ****        34.7500  17.2500  59.7500 Du        
   7892 ****        34.7500  17.5000  57.7500 Du        
   7893 ****        34.7500  17.5000  58.0000 Du        
   7894 ****        34.7500  17.5000  58.2500 Du        
   7895 ****        34.7500  17.5000  58.5000 Du        
   7896 ****        34.7500  17.5000  58.7500 Du        
   7897 ****        34.7500  17.5000  59.0000 Du        
   7898 ****        34.7500  17.5000  59.2500 Du        
   7899 ****        34.7500  17.5000  59.5000 Du        
   7900 ****        34.7500  17.5000  59.7500 Du        
   7901 ****        34.7500  17.5000  60.0000 Du        
   7902 ****        34.7500  17.7500  57.7500 Du        
   7903 ****        34.7500  17.7500  58.0000 Du        
   7904 ****        34.7500  17.7500  58.2500 Du        
   7905 ****        34.7500  17.7500  58.5000 Du        
   7906 ****        34.7500  17.7500  58.7500 Du        
   7907 ****        34.7500  17.7500  59.0000 Du        
   7908 ****        34.7500  17.7500  59.2500 Du        
   7909 ****        34.7500  17.7500  59.5000 Du        
   7910 ****        34.7500  17.7500  59.7500 Du        
   7911 ****        34.7500  17.7500  60.0000 Du        
   7912 ****        34.7500  18.0000  57.7500 Du        
   7913 ****        34.7500  18.0000  58.0000 Du        
   7914 ****        34.7500  18.0000  58.2500 Du        
   7915 ****        34.7500  18.0000  58.5000 Du        
   7916 ****        34.7500  18.0000  58.7500 Du        
   7917 ****        34.7500  18.0000  59.0000 Du        
   7918 ****        34.7500  18.0000  59.2500 Du        
   7919 ****        34.7500  18.0000  59.5000 Du        
   7920 ****        34.7500  18.0000  59.7500 Du        
   7921 ****        34.7500  18.0000  60.0000 Du        
   7922 ****        34.7500  18.0000  60.2500 Du        
   7923 ****        34.7500  18.2500  57.7500 Du        
   7924 ****        34.7500  18.2500  58.0000 Du        
   7925 ****        34.7500  18.2500  58.2500 Du        
   7926 ****        34.7500  18.2500  58.5000 Du        
   7927 ****        34.7500  18.2500  58.7500 Du        
   7928 ****        34.7500  18.2500  59.0000 Du        
   7929 ****        34.7500  18.2500  59.2500 Du        
   7930 ****        34.7500  18.2500  59.5000 Du        
   7931 ****        34.7500  18.2500  59.7500 Du        
   7932 ****        34.7500  18.2500  60.0000 Du        
   7933 ****        34.7500  18.5000  57.7500 Du        
   7934 ****        34.7500  18.5000  58.0000 Du        
   7935 ****        34.7500  18.5000  58.2500 Du        
   7936 ****        34.7500  18.5000  58.5000 Du        
   7937 ****        34.7500  18.5000  58.7500 Du        
   7938 ****        34.7500  18.5000  59.0000 Du        
   7939 ****        34.7500  18.5000  59.2500 Du        
   7940 ****        34.7500  18.5000  59.5000 Du        
   7941 ****        34.7500  18.5000  59.7500 Du        
   7942 ****        34.7500  18.5000  60.0000 Du        
   7943 ****        34.7500  18.7500  57.7500 Du        
   7944 ****        34.7500  18.7500  58.0000 Du        
   7945 ****        34.7500  18.7500  58.2500 Du        
   7946 ****        34.7500  18.7500  58.5000 Du        
   7947 ****        34.7500  18.7500  58.7500 Du        
   7948 ****        34.7500  18.7500  59.0000 Du        
   7949 ****        34.7500  18.7500  59.2500 Du        
   7950 ****        34.7500  18.7500  59.5000 Du        
   7951 ****        34.7500  18.7500  59.7500 Du        
   7952 ****        34.7500  18.7500  60.0000 Du        
   7953 ****        34.7500  19.0000  58.0000 Du        
   7954 ****        34.7500  19.0000  58.2500 Du        
   7955 ****        34.7500  19.0000  58.5000 Du        
   7956 ****        34.7500  19.0000  58.7500 Du        
   7957 ****        34.7500  19.0000  59.0000 Du        
   7958 ****        34.7500  19.0000  59.2500 Du        
   7959 ****        34.7500  19.0000  59.5000 Du        
   7960 ****        34.7500  19.0000  59.7500 Du        
   7961 ****        34.7500  19.0000  60.0000 Du        
   7962 ****        34.7500  19.2500  58.0000 Du        
   7963 ****        34.7500  19.2500  58.2500 Du        
   7964 ****        34.7500  19.2500  58.5000 Du        
   7965 ****        34.7500  19.2500  58.7500 Du        
   7966 ****        34.7500  19.2500  59.0000 Du        
   7967 ****        34.7500  19.2500  59.2500 Du        
   7968 ****        34.7500  19.2500  59.5000 Du        
   7969 ****        34.7500  19.2500  59.7500 Du        
   7970 ****        34.7500  19.2500  60.0000 Du        
   7971 ****        34.7500  19.5000  58.0000 Du        
   7972 ****        34.7500  19.5000  58.2500 Du        
   7973 ****        34.7500  19.5000  58.5000 Du        
   7974 ****        34.7500  19.5000  58.7500 Du        
   7975 ****        34.7500  19.5000  59.0000 Du        
   7976 ****        34.7500  19.5000  59.2500 Du        
   7977 ****        34.7500  19.5000  59.5000 Du        
   7978 ****        34.7500  19.5000  59.7500 Du        
   7979 ****        34.7500  19.5000  60.0000 Du        
   7980 ****        34.7500  19.7500  58.5000 Du        
   7981 ****        34.7500  19.7500  58.7500 Du        
   7982 ****        34.7500  19.7500  59.0000 Du        
   7983 ****        34.7500  19.7500  59.2500 Du        
   7984 ****        34.7500  19.7500  59.5000 Du        
   7985 ****        34.7500  19.7500  59.7500 Du        
   7986 ****        34.7500  19.7500  60.0000 Du        
   7987 ****        34.7500  20.0000  58.7500 Du        
   7988 ****        34.7500  20.0000  59.0000 Du        
   7989 ****        34.7500  20.0000  59.2500 Du        
   7990 ****        34.7500  20.0000  59.5000 Du        
   7991 ****        34.7500  20.0000  59.7500 Du        
   7992 ****        34.7500  20.0000  60.0000 Du        
   7993 ****        34.7500  20.2500  59.0000 Du        
   7994 ****        34.7500  20.2500  59.2500 Du        
   7995 ****        34.7500  20.2500  59.5000 Du        
   7996 ****        34.7500  20.2500  59.7500 Du        
   7997 ****        34.7500  20.2500  60.0000 Du        
   7998 ****        34.7500  20.5000  59.2500 Du        
   7999 ****        34.7500  20.5000  59.5000 Du        
   8000 ****        34.7500  20.5000  59.7500 Du        
   8001 ****        34.7500  20.5000  60.0000 Du        
   8002 ****        34.7500  20.7500  59.0000 Du        
   8003 ****        34.7500  20.7500  59.2500 Du        
   8004 ****        34.7500  20.7500  59.7500 Du        
   8005 ****        34.7500  20.7500  60.0000 Du        
   8006 ****        34.7500  21.0000  59.2500 Du        
   8007 ****        34.7500  21.0000  59.7500 Du        
   8008 ****        34.7500  21.0000  60.0000 Du        
   8009 ****        34.7500  21.0000  60.2500 Du        
   8010 ****        34.7500  21.2500  60.0000 Du        
   8011 ****        35.0000  13.0000  56.2500 Du        
   8012 ****        35.0000  13.0000  56.5000 Du        
   8013 ****        35.0000  13.0000  56.7500 Du        
   8014 ****        35.0000  13.0000  57.0000 Du        
   8015 ****        35.0000  13.0000  57.2500 Du        
   8016 ****        35.0000  13.2500  56.0000 Du        
   8017 ****        35.0000  13.2500  56.2500 Du        
   8018 ****        35.0000  13.2500  56.5000 Du        
   8019 ****        35.0000  13.2500  56.7500 Du        
   8020 ****        35.0000  13.2500  57.0000 Du        
   8021 ****        35.0000  13.2500  57.2500 Du        
   8022 ****        35.0000  13.2500  57.5000 Du        
   8023 ****        35.0000  13.5000  56.0000 Du        
   8024 ****        35.0000  13.5000  56.2500 Du        
   8025 ****        35.0000  13.5000  56.5000 Du        
   8026 ****        35.0000  13.5000  56.7500 Du        
   8027 ****        35.0000  13.5000  57.0000 Du        
   8028 ****        35.0000  13.5000  57.2500 Du        
   8029 ****        35.0000  13.5000  57.5000 Du        
   8030 ****        35.0000  13.5000  57.7500 Du        
   8031 ****        35.0000  13.7500  56.0000 Du        
   8032 ****        35.0000  13.7500  56.2500 Du        
   8033 ****        35.0000  13.7500  56.5000 Du        
   8034 ****        35.0000  13.7500  56.7500 Du        
   8035 ****        35.0000  13.7500  57.0000 Du        
   8036 ****        35.0000  13.7500  57.2500 Du        
   8037 ****        35.0000  13.7500  57.5000 Du        
   8038 ****        35.0000  13.7500  57.7500 Du        
   8039 ****        35.0000  14.0000  56.2500 Du        
   8040 ****        35.0000  14.0000  56.5000 Du        
   8041 ****        35.0000  14.0000  56.7500 Du        
   8042 ****        35.0000  14.0000  57.0000 Du        
   8043 ****        35.0000  14.0000  57.2500 Du        
   8044 ****        35.0000  14.0000  57.5000 Du        
   8045 ****        35.0000  14.0000  57.7500 Du        
   8046 ****        35.0000  14.0000  58.0000 Du        
   8047 ****        35.0000  14.2500  56.5000 Du        
   8048 ****        35.0000  14.2500  56.7500 Du        
   8049 ****        35.0000  14.2500  57.0000 Du        
   8050 ****        35.0000  14.2500  57.2500 Du        
   8051 ****        35.0000  14.2500  57.5000 Du        
   8052 ****        35.0000  14.2500  57.7500 Du        
   8053 ****        35.0000  14.2500  58.0000 Du        
   8054 ****        35.0000  14.5000  56.7500 Du        
   8055 ****        35.0000  14.5000  57.0000 Du        
   8056 ****        35.0000  14.5000  57.2500 Du        
   8057 ****        35.0000  14.5000  57.5000 Du        
   8058 ****        35.0000  14.5000  57.7500 Du        
   8059 ****        35.0000  14.5000  58.0000 Du        
   8060 ****        35.0000  14.7500  56.7500 Du        
   8061 ****        35.0000  14.7500  57.0000 Du        
   8062 ****        35.0000  14.7500  57.2500 Du        
   8063 ****        35.0000  14.7500  57.5000 Du        
   8064 ****        35.0000  14.7500  57.7500 Du        
   8065 ****        35.0000  14.7500  58.0000 Du        
   8066 ****        35.0000  14.7500  58.2500 Du        
   8067 ****        35.0000  15.0000  57.0000 Du        
   8068 ****        35.0000  15.0000  57.2500 Du        
   8069 ****        35.0000  15.0000  57.5000 Du        
   8070 ****        35.0000  15.0000  57.7500 Du        
   8071 ****        35.0000  15.0000  58.0000 Du        
   8072 ****        35.0000  15.0000  58.2500 Du        
   8073 ****        35.0000  15.0000  58.5000 Du        
   8074 ****        35.0000  15.2500  57.2500 Du        
   8075 ****        35.0000  15.2500  57.5000 Du        
   8076 ****        35.0000  15.2500  57.7500 Du        
   8077 ****        35.0000  15.2500  58.0000 Du        
   8078 ****        35.0000  15.2500  58.2500 Du        
   8079 ****        35.0000  15.2500  58.5000 Du        
   8080 ****        35.0000  15.5000  57.5000 Du        
   8081 ****        35.0000  15.5000  57.7500 Du        
   8082 ****        35.0000  15.5000  58.0000 Du        
   8083 ****        35.0000  15.5000  58.2500 Du        
   8084 ****        35.0000  15.5000  58.5000 Du        
   8085 ****        35.0000  15.5000  58.7500 Du        
   8086 ****        35.0000  15.7500  57.5000 Du        
   8087 ****        35.0000  15.7500  57.7500 Du        
   8088 ****        35.0000  15.7500  58.0000 Du        
   8089 ****        35.0000  15.7500  58.2500 Du        
   8090 ****        35.0000  15.7500  58.5000 Du        
   8091 ****        35.0000  15.7500  58.7500 Du        
   8092 ****        35.0000  15.7500  59.0000 Du        
   8093 ****        35.0000  16.0000  57.5000 Du        
   8094 ****        35.0000  16.0000  57.7500 Du        
   8095 ****        35.0000  16.0000  58.0000 Du        
   8096 ****        35.0000  16.0000  58.2500 Du        
   8097 ****        35.0000  16.0000  58.5000 Du        
   8098 ****        35.0000  16.0000  58.7500 Du        
   8099 ****        35.0000  16.0000  59.0000 Du        
   8100 ****        35.0000  16.2500  57.7500 Du        
   8101 ****        35.0000  16.2500  58.0000 Du        
   8102 ****        35.0000  16.2500  58.2500 Du        
   8103 ****        35.0000  16.2500  58.5000 Du        
   8104 ****        35.0000  16.2500  58.7500 Du        
   8105 ****        35.0000  16.2500  59.0000 Du        
   8106 ****        35.0000  16.2500  59.2500 Du        
   8107 ****        35.0000  16.5000  57.7500 Du        
   8108 ****        35.0000  16.5000  58.0000 Du        
   8109 ****        35.0000  16.5000  58.2500 Du        
   8110 ****        35.0000  16.5000  58.5000 Du        
   8111 ****        35.0000  16.5000  58.7500 Du        
   8112 ****        35.0000  16.5000  59.0000 Du        
   8113 ****        35.0000  16.5000  59.2500 Du        
   8114 ****        35.0000  16.7500  57.7500 Du        
   8115 ****        35.0000  16.7500  58.0000 Du        
   8116 ****        35.0000  16.7500  58.2500 Du        
   8117 ****        35.0000  16.7500  58.5000 Du        
   8118 ****        35.0000  16.7500  58.7500 Du        
   8119 ****        35.0000  16.7500  59.0000 Du        
   8120 ****        35.0000  16.7500  59.2500 Du        
   8121 ****        35.0000  16.7500  59.5000 Du        
   8122 ****        35.0000  17.0000  57.7500 Du        
   8123 ****        35.0000  17.0000  58.0000 Du        
   8124 ****        35.0000  17.0000  58.2500 Du        
   8125 ****        35.0000  17.0000  58.5000 Du        
   8126 ****        35.0000  17.0000  58.7500 Du        
   8127 ****        35.0000  17.0000  59.0000 Du        
   8128 ****        35.0000  17.0000  59.2500 Du        
   8129 ****        35.0000  17.0000  59.5000 Du        
   8130 ****        35.0000  17.0000  59.7500 Du        
   8131 ****        35.0000  17.2500  57.7500 Du        
   8132 ****        35.0000  17.2500  58.0000 Du        
   8133 ****        35.0000  17.2500  58.2500 Du        
   8134 ****        35.0000  17.2500  58.5000 Du        
   8135 ****        35.0000  17.2500  58.7500 Du        
   8136 ****        35.0000  17.2500  59.0000 Du        
   8137 ****        35.0000  17.2500  59.2500 Du        
   8138 ****        35.0000  17.2500  59.5000 Du        
   8139 ****        35.0000  17.2500  59.7500 Du        
   8140 ****        35.0000  17.5000  57.7500 Du        
   8141 ****        35.0000  17.5000  58.0000 Du        
   8142 ****        35.0000  17.5000  58.2500 Du        
   8143 ****        35.0000  17.5000  58.5000 Du        
   8144 ****        35.0000  17.5000  58.7500 Du        
   8145 ****        35.0000  17.5000  59.0000 Du        
   8146 ****        35.0000  17.5000  59.2500 Du        
   8147 ****        35.0000  17.5000  59.5000 Du        
   8148 ****        35.0000  17.5000  59.7500 Du        
   8149 ****        35.0000  17.5000  60.0000 Du        
   8150 ****        35.0000  17.7500  57.7500 Du        
   8151 ****        35.0000  17.7500  58.0000 Du        
   8152 ****        35.0000  17.7500  58.2500 Du        
   8153 ****        35.0000  17.7500  58.5000 Du        
   8154 ****        35.0000  17.7500  58.7500 Du        
   8155 ****        35.0000  17.7500  59.0000 Du        
   8156 ****        35.0000  17.7500  59.2500 Du        
   8157 ****        35.0000  17.7500  59.5000 Du        
   8158 ****        35.0000  17.7500  59.7500 Du        
   8159 ****        35.0000  17.7500  60.0000 Du        
   8160 ****        35.0000  18.0000  57.7500 Du        
   8161 ****        35.0000  18.0000  58.0000 Du        
   8162 ****        35.0000  18.0000  58.2500 Du        
   8163 ****        35.0000  18.0000  58.5000 Du        
   8164 ****        35.0000  18.0000  58.7500 Du        
   8165 ****        35.0000  18.0000  59.0000 Du        
   8166 ****        35.0000  18.0000  59.2500 Du        
   8167 ****        35.0000  18.0000  59.5000 Du        
   8168 ****        35.0000  18.0000  59.7500 Du        
   8169 ****        35.0000  18.0000  60.0000 Du        
   8170 ****        35.0000  18.2500  57.7500 Du        
   8171 ****        35.0000  18.2500  58.0000 Du        
   8172 ****        35.0000  18.2500  58.2500 Du        
   8173 ****        35.0000  18.2500  58.5000 Du        
   8174 ****        35.0000  18.2500  58.7500 Du        
   8175 ****        35.0000  18.2500  59.0000 Du        
   8176 ****        35.0000  18.2500  59.2500 Du        
   8177 ****        35.0000  18.2500  59.5000 Du        
   8178 ****        35.0000  18.2500  59.7500 Du        
   8179 ****        35.0000  18.2500  60.0000 Du        
   8180 ****        35.0000  18.5000  58.0000 Du        
   8181 ****        35.0000  18.5000  58.2500 Du        
   8182 ****        35.0000  18.5000  58.5000 Du        
   8183 ****        35.0000  18.5000  58.7500 Du        
   8184 ****        35.0000  18.5000  59.0000 Du        
   8185 ****        35.0000  18.5000  59.2500 Du        
   8186 ****        35.0000  18.5000  59.5000 Du        
   8187 ****        35.0000  18.5000  59.7500 Du        
   8188 ****        35.0000  18.7500  58.0000 Du        
   8189 ****        35.0000  18.7500  58.2500 Du        
   8190 ****        35.0000  18.7500  58.5000 Du        
   8191 ****        35.0000  18.7500  58.7500 Du        
   8192 ****        35.0000  18.7500  59.0000 Du        
   8193 ****        35.0000  18.7500  59.2500 Du        
   8194 ****        35.0000  18.7500  59.5000 Du        
   8195 ****        35.0000  18.7500  59.7500 Du        
   8196 ****        35.0000  19.0000  58.0000 Du        
   8197 ****        35.0000  19.0000  58.2500 Du        
   8198 ****        35.0000  19.0000  58.5000 Du        
   8199 ****        35.0000  19.0000  58.7500 Du        
   8200 ****        35.0000  19.0000  59.0000 Du        
   8201 ****        35.0000  19.0000  59.2500 Du        
   8202 ****        35.0000  19.0000  59.5000 Du        
   8203 ****        35.0000  19.0000  59.7500 Du        
   8204 ****        35.0000  19.2500  58.2500 Du        
   8205 ****        35.0000  19.2500  58.5000 Du        
   8206 ****        35.0000  19.2500  58.7500 Du        
   8207 ****        35.0000  19.2500  59.0000 Du        
   8208 ****        35.0000  19.2500  59.2500 Du        
   8209 ****        35.0000  19.2500  59.5000 Du        
   8210 ****        35.0000  19.2500  59.7500 Du        
   8211 ****        35.0000  19.5000  59.0000 Du        
   8212 ****        35.0000  19.5000  59.2500 Du        
   8213 ****        35.0000  19.5000  59.5000 Du        
   8214 ****        35.0000  19.5000  59.7500 Du        
   8215 ****        35.0000  19.7500  59.0000 Du        
   8216 ****        35.0000  19.7500  59.2500 Du        
   8217 ****        35.0000  19.7500  59.5000 Du        
   8218 ****        35.0000  19.7500  59.7500 Du        
   8219 ****        35.0000  19.7500  60.0000 Du        
   8220 ****        35.0000  20.0000  59.0000 Du        
   8221 ****        35.0000  20.0000  59.2500 Du        
   8222 ****        35.0000  20.0000  59.5000 Du        
   8223 ****        35.0000  20.0000  59.7500 Du        
   8224 ****        35.0000  20.0000  60.0000 Du        
   8225 ****        35.0000  20.2500  59.2500 Du        
   8226 ****        35.0000  20.2500  59.5000 Du        
   8227 ****        35.0000  20.2500  59.7500 Du        
   8228 ****        35.0000  20.2500  60.0000 Du        
   8229 ****        35.0000  20.5000  59.7500 Du        
   8230 ****        35.0000  20.5000  60.0000 Du        
   8231 ****        35.0000  20.7500  59.7500 Du        
   8232 ****        35.0000  20.7500  60.0000 Du        
   8233 ****        35.0000  20.7500  60.2500 Du        
   8234 ****        35.0000  21.0000  59.7500 Du        
   8235 ****        35.0000  21.0000  60.0000 Du        
   8236 ****        35.0000  21.0000  60.2500 Du        
   8237 ****        35.0000  21.0000  60.5000 Du        
   8238 ****        35.0000  21.2500  60.0000 Du        
   8239 ****        35.0000  21.2500  60.2500 Du        
   8240 ****        35.2500  13.0000  56.2500 Du        
   8241 ****        35.2500  13.0000  56.5000 Du        
   8242 ****        35.2500  13.0000  56.7500 Du        
   8243 ****        35.2500  13.0000  57.0000 Du        
   8244 ****        35.2500  13.0000  57.2500 Du        
   8245 ****        35.2500  13.2500  56.0000 Du        
   8246 ****        35.2500  13.2500  56.2500 Du        
   8247 ****        35.2500  13.2500  56.5000 Du        
   8248 ****        35.2500  13.2500  56.7500 Du        
   8249 ****        35.2500  13.2500  57.0000 Du        
   8250 ****        35.2500  13.2500  57.2500 Du        
   8251 ****        35.2500  13.2500  57.5000 Du        
   8252 ****        35.2500  13.5000  56.0000 Du        
   8253 ****        35.2500  13.5000  56.2500 Du        
   8254 ****        35.2500  13.5000  56.5000 Du        
   8255 ****        35.2500  13.5000  56.7500 Du        
   8256 ****        35.2500  13.5000  57.0000 Du        
   8257 ****        35.2500  13.5000  57.2500 Du        
   8258 ****        35.2500  13.5000  57.5000 Du        
   8259 ****        35.2500  13.5000  57.7500 Du        
   8260 ****        35.2500  13.7500  56.0000 Du        
   8261 ****        35.2500  13.7500  56.2500 Du        
   8262 ****        35.2500  13.7500  56.5000 Du        
   8263 ****        35.2500  13.7500  56.7500 Du        
   8264 ****        35.2500  13.7500  57.0000 Du        
   8265 ****        35.2500  13.7500  57.2500 Du        
   8266 ****        35.2500  13.7500  57.5000 Du        
   8267 ****        35.2500  13.7500  57.7500 Du        
   8268 ****        35.2500  14.0000  56.0000 Du        
   8269 ****        35.2500  14.0000  56.2500 Du        
   8270 ****        35.2500  14.0000  56.5000 Du        
   8271 ****        35.2500  14.0000  56.7500 Du        
   8272 ****        35.2500  14.0000  57.0000 Du        
   8273 ****        35.2500  14.0000  57.2500 Du        
   8274 ****        35.2500  14.0000  57.5000 Du        
   8275 ****        35.2500  14.0000  57.7500 Du        
   8276 ****        35.2500  14.0000  58.0000 Du        
   8277 ****        35.2500  14.2500  56.2500 Du        
   8278 ****        35.2500  14.2500  56.5000 Du        
   8279 ****        35.2500  14.2500  56.7500 Du        
   8280 ****        35.2500  14.2500  57.0000 Du        
   8281 ****        35.2500  14.2500  57.2500 Du        
   8282 ****        35.2500  14.2500  57.5000 Du        
   8283 ****        35.2500  14.2500  57.7500 Du        
   8284 ****        35.2500  14.2500  58.0000 Du        
   8285 ****        35.2500  14.5000  56.7500 Du        
   8286 ****        35.2500  14.5000  57.0000 Du        
   8287 ****        35.2500  14.5000  57.2500 Du        
   8288 ****        35.2500  14.5000  57.5000 Du        
   8289 ****        35.2500  14.5000  57.7500 Du        
   8290 ****        35.2500  14.5000  58.0000 Du        
   8291 ****        35.2500  14.5000  58.2500 Du        
   8292 ****        35.2500  14.7500  57.0000 Du        
   8293 ****        35.2500  14.7500  57.2500 Du        
   8294 ****        35.2500  14.7500  57.5000 Du        
   8295 ****        35.2500  14.7500  57.7500 Du        
   8296 ****        35.2500  14.7500  58.0000 Du        
   8297 ****        35.2500  14.7500  58.2500 Du        
   8298 ****        35.2500  15.0000  57.2500 Du        
   8299 ****        35.2500  15.0000  57.5000 Du        
   8300 ****        35.2500  15.0000  57.7500 Du        
   8301 ****        35.2500  15.0000  58.0000 Du        
   8302 ****        35.2500  15.0000  58.2500 Du        
   8303 ****        35.2500  15.0000  58.5000 Du        
   8304 ****        35.2500  15.2500  57.5000 Du        
   8305 ****        35.2500  15.2500  57.7500 Du        
   8306 ****        35.2500  15.2500  58.0000 Du        
   8307 ****        35.2500  15.2500  58.2500 Du        
   8308 ****        35.2500  15.2500  58.5000 Du        
   8309 ****        35.2500  15.2500  58.7500 Du        
   8310 ****        35.2500  15.5000  57.5000 Du        
   8311 ****        35.2500  15.5000  57.7500 Du        
   8312 ****        35.2500  15.5000  58.0000 Du        
   8313 ****        35.2500  15.5000  58.2500 Du        
   8314 ****        35.2500  15.5000  58.5000 Du        
   8315 ****        35.2500  15.5000  58.7500 Du        
   8316 ****        35.2500  15.7500  57.7500 Du        
   8317 ****        35.2500  15.7500  58.0000 Du        
   8318 ****        35.2500  15.7500  58.2500 Du        
   8319 ****        35.2500  15.7500  58.5000 Du        
   8320 ****        35.2500  15.7500  58.7500 Du        
   8321 ****        35.2500  15.7500  59.0000 Du        
   8322 ****        35.2500  16.0000  57.7500 Du        
   8323 ****        35.2500  16.0000  58.0000 Du        
   8324 ****        35.2500  16.0000  58.2500 Du        
   8325 ****        35.2500  16.0000  58.5000 Du        
   8326 ****        35.2500  16.0000  58.7500 Du        
   8327 ****        35.2500  16.0000  59.0000 Du        
   8328 ****        35.2500  16.0000  59.2500 Du        
   8329 ****        35.2500  16.2500  57.7500 Du        
   8330 ****        35.2500  16.2500  58.0000 Du        
   8331 ****        35.2500  16.2500  58.2500 Du        
   8332 ****        35.2500  16.2500  58.5000 Du        
   8333 ****        35.2500  16.2500  58.7500 Du        
   8334 ****        35.2500  16.2500  59.0000 Du        
   8335 ****        35.2500  16.2500  59.2500 Du        
   8336 ****        35.2500  16.5000  57.7500 Du        
   8337 ****        35.2500  16.5000  58.0000 Du        
   8338 ****        35.2500  16.5000  58.2500 Du        
   8339 ****        35.2500  16.5000  58.5000 Du        
   8340 ****        35.2500  16.5000  58.7500 Du        
   8341 ****        35.2500  16.5000  59.0000 Du        
   8342 ****        35.2500  16.5000  59.2500 Du        
   8343 ****        35.2500  16.5000  59.5000 Du        
   8344 ****        35.2500  16.7500  57.7500 Du        
   8345 ****        35.2500  16.7500  58.0000 Du        
   8346 ****        35.2500  16.7500  58.2500 Du        
   8347 ****        35.2500  16.7500  58.5000 Du        
   8348 ****        35.2500  16.7500  58.7500 Du        
   8349 ****        35.2500  16.7500  59.0000 Du        
   8350 ****        35.2500  16.7500  59.2500 Du        
   8351 ****        35.2500  16.7500  59.5000 Du        
   8352 ****        35.2500  17.0000  57.7500 Du        
   8353 ****        35.2500  17.0000  58.0000 Du        
   8354 ****        35.2500  17.0000  58.2500 Du        
   8355 ****        35.2500  17.0000  58.5000 Du        
   8356 ****        35.2500  17.0000  58.7500 Du        
   8357 ****        35.2500  17.0000  59.0000 Du        
   8358 ****        35.2500  17.0000  59.2500 Du        
   8359 ****        35.2500  17.0000  59.5000 Du        
   8360 ****        35.2500  17.0000  59.7500 Du        
   8361 ****        35.2500  17.2500  57.7500 Du        
   8362 ****        35.2500  17.2500  58.0000 Du        
   8363 ****        35.2500  17.2500  58.2500 Du        
   8364 ****        35.2500  17.2500  58.5000 Du        
   8365 ****        35.2500  17.2500  58.7500 Du        
   8366 ****        35.2500  17.2500  59.0000 Du        
   8367 ****        35.2500  17.2500  59.2500 Du        
   8368 ****        35.2500  17.2500  59.5000 Du        
   8369 ****        35.2500  17.2500  59.7500 Du        
   8370 ****        35.2500  17.2500  60.0000 Du        
   8371 ****        35.2500  17.5000  57.7500 Du        
   8372 ****        35.2500  17.5000  58.0000 Du        
   8373 ****        35.2500  17.5000  58.2500 Du        
   8374 ****        35.2500  17.5000  58.5000 Du        
   8375 ****        35.2500  17.5000  58.7500 Du        
   8376 ****        35.2500  17.5000  59.0000 Du        
   8377 ****        35.2500  17.5000  59.2500 Du        
   8378 ****        35.2500  17.5000  59.5000 Du        
   8379 ****        35.2500  17.5000  59.7500 Du        
   8380 ****        35.2500  17.5000  60.0000 Du        
   8381 ****        35.2500  17.7500  57.7500 Du        
   8382 ****        35.2500  17.7500  58.0000 Du        
   8383 ****        35.2500  17.7500  58.2500 Du        
   8384 ****        35.2500  17.7500  58.5000 Du        
   8385 ****        35.2500  17.7500  58.7500 Du        
   8386 ****        35.2500  17.7500  59.0000 Du        
   8387 ****        35.2500  17.7500  59.2500 Du        
   8388 ****        35.2500  17.7500  59.5000 Du        
   8389 ****        35.2500  17.7500  59.7500 Du        
   8390 ****        35.2500  17.7500  60.0000 Du        
   8391 ****        35.2500  18.0000  57.7500 Du        
   8392 ****        35.2500  18.0000  58.0000 Du        
   8393 ****        35.2500  18.0000  58.2500 Du        
   8394 ****        35.2500  18.0000  58.5000 Du        
   8395 ****        35.2500  18.0000  58.7500 Du        
   8396 ****        35.2500  18.0000  59.0000 Du        
   8397 ****        35.2500  18.0000  59.2500 Du        
   8398 ****        35.2500  18.0000  59.5000 Du        
   8399 ****        35.2500  18.0000  59.7500 Du        
   8400 ****        35.2500  18.2500  58.0000 Du        
   8401 ****        35.2500  18.2500  58.2500 Du        
   8402 ****        35.2500  18.2500  58.5000 Du        
   8403 ****        35.2500  18.2500  58.7500 Du        
   8404 ****        35.2500  18.2500  59.0000 Du        
   8405 ****        35.2500  18.2500  59.2500 Du        
   8406 ****        35.2500  18.2500  59.5000 Du        
   8407 ****        35.2500  18.2500  59.7500 Du        
   8408 ****        35.2500  18.5000  58.0000 Du        
   8409 ****        35.2500  18.5000  58.2500 Du        
   8410 ****        35.2500  18.5000  58.5000 Du        
   8411 ****        35.2500  18.5000  58.7500 Du        
   8412 ****        35.2500  18.5000  59.0000 Du        
   8413 ****        35.2500  18.5000  59.2500 Du        
   8414 ****        35.2500  18.5000  59.5000 Du        
   8415 ****        35.2500  18.5000  59.7500 Du        
   8416 ****        35.2500  18.7500  58.2500 Du        
   8417 ****        35.2500  18.7500  58.5000 Du        
   8418 ****        35.2500  18.7500  58.7500 Du        
   8419 ****        35.2500  18.7500  59.0000 Du        
   8420 ****        35.2500  18.7500  59.2500 Du        
   8421 ****        35.2500  18.7500  59.5000 Du        
   8422 ****        35.2500  18.7500  59.7500 Du        
   8423 ****        35.2500  19.0000  58.5000 Du        
   8424 ****        35.2500  19.0000  58.7500 Du        
   8425 ****        35.2500  19.0000  59.0000 Du        
   8426 ****        35.2500  19.0000  59.2500 Du        
   8427 ****        35.2500  19.0000  59.5000 Du        
   8428 ****        35.2500  19.0000  59.7500 Du        
   8429 ****        35.2500  19.2500  58.7500 Du        
   8430 ****        35.2500  19.2500  59.0000 Du        
   8431 ****        35.2500  19.2500  59.2500 Du        
   8432 ****        35.2500  19.2500  59.5000 Du        
   8433 ****        35.2500  19.2500  59.7500 Du        
   8434 ****        35.2500  19.5000  59.2500 Du        
   8435 ****        35.2500  19.5000  59.5000 Du        
   8436 ****        35.2500  19.7500  59.5000 Du        
   8437 ****        35.2500  19.7500  59.7500 Du        
   8438 ****        35.2500  20.0000  59.5000 Du        
   8439 ****        35.2500  20.0000  59.7500 Du        
   8440 ****        35.2500  20.2500  59.7500 Du        
   8441 ****        35.2500  20.2500  60.0000 Du        
   8442 ****        35.2500  20.7500  60.0000 Du        
   8443 ****        35.2500  20.7500  60.2500 Du        
   8444 ****        35.2500  21.0000  60.0000 Du        
   8445 ****        35.2500  21.0000  60.2500 Du        
   8446 ****        35.2500  21.0000  60.5000 Du        
   8447 ****        35.2500  21.2500  60.0000 Du        
   8448 ****        35.2500  21.2500  60.2500 Du        
   8449 ****        35.2500  21.2500  60.5000 Du        
   8450 ****        35.5000  13.0000  56.5000 Du        
   8451 ****        35.5000  13.0000  56.7500 Du        
   8452 ****        35.5000  13.0000  57.0000 Du        
   8453 ****        35.5000  13.0000  57.2500 Du        
   8454 ****        35.5000  13.2500  56.0000 Du        
   8455 ****        35.5000  13.2500  56.2500 Du        
   8456 ****        35.5000  13.2500  56.5000 Du        
   8457 ****        35.5000  13.2500  56.7500 Du        
   8458 ****        35.5000  13.2500  57.0000 Du        
   8459 ****        35.5000  13.2500  57.2500 Du        
   8460 ****        35.5000  13.5000  56.0000 Du        
   8461 ****        35.5000  13.5000  56.2500 Du        
   8462 ****        35.5000  13.5000  56.5000 Du        
   8463 ****        35.5000  13.5000  56.7500 Du        
   8464 ****        35.5000  13.5000  57.0000 Du        
   8465 ****        35.5000  13.5000  57.2500 Du        
   8466 ****        35.5000  13.5000  57.5000 Du        
   8467 ****        35.5000  13.7500  56.0000 Du        
   8468 ****        35.5000  13.7500  56.2500 Du        
   8469 ****        35.5000  13.7500  56.5000 Du        
   8470 ****        35.5000  13.7500  56.7500 Du        
   8471 ****        35.5000  13.7500  57.0000 Du        
   8472 ****        35.5000  13.7500  57.2500 Du        
   8473 ****        35.5000  13.7500  57.5000 Du        
   8474 ****        35.5000  13.7500  57.7500 Du        
   8475 ****        35.5000  14.0000  56.2500 Du        
   8476 ****        35.5000  14.0000  56.5000 Du        
   8477 ****        35.5000  14.0000  56.7500 Du        
   8478 ****        35.5000  14.0000  57.0000 Du        
   8479 ****        35.5000  14.0000  57.2500 Du        
   8480 ****        35.5000  14.0000  57.5000 Du        
   8481 ****        35.5000  14.0000  57.7500 Du        
   8482 ****        35.5000  14.2500  56.5000 Du        
   8483 ****        35.5000  14.2500  56.7500 Du        
   8484 ****        35.5000  14.2500  57.0000 Du        
   8485 ****        35.5000  14.2500  57.2500 Du        
   8486 ****        35.5000  14.2500  57.5000 Du        
   8487 ****        35.5000  14.2500  57.7500 Du        
   8488 ****        35.5000  14.2500  58.0000 Du        
   8489 ****        35.5000  14.5000  57.0000 Du        
   8490 ****        35.5000  14.5000  57.2500 Du        
   8491 ****        35.5000  14.5000  57.5000 Du        
   8492 ****        35.5000  14.5000  57.7500 Du        
   8493 ****        35.5000  14.5000  58.0000 Du        
   8494 ****        35.5000  14.7500  57.2500 Du        
   8495 ****        35.5000  14.7500  57.5000 Du        
   8496 ****        35.5000  14.7500  57.7500 Du        
   8497 ****        35.5000  14.7500  58.0000 Du        
   8498 ****        35.5000  14.7500  58.2500 Du        
   8499 ****        35.5000  15.0000  57.7500 Du        
   8500 ****        35.5000  15.0000  58.0000 Du        
   8501 ****        35.5000  15.0000  58.2500 Du        
   8502 ****        35.5000  15.0000  58.5000 Du        
   8503 ****        35.5000  15.2500  57.7500 Du        
   8504 ****        35.5000  15.2500  58.0000 Du        
   8505 ****        35.5000  15.2500  58.2500 Du        
   8506 ****        35.5000  15.2500  58.5000 Du        
   8507 ****        35.5000  15.2500  58.7500 Du        
   8508 ****        35.5000  15.5000  57.7500 Du        
   8509 ****        35.5000  15.5000  58.0000 Du        
   8510 ****        35.5000  15.5000  58.2500 Du        
   8511 ****        35.5000  15.5000  58.5000 Du        
   8512 ****        35.5000  15.5000  58.7500 Du        
   8513 ****        35.5000  15.5000  59.0000 Du        
   8514 ****        35.5000  15.7500  57.7500 Du        
   8515 ****        35.5000  15.7500  58.0000 Du        
   8516 ****        35.5000  15.7500  58.2500 Du        
   8517 ****        35.5000  15.7500  58.5000 Du        
   8518 ****        35.5000  15.7500  58.7500 Du        
   8519 ****        35.5000  15.7500  59.0000 Du        
   8520 ****        35.5000  16.0000  57.7500 Du        
   8521 ****        35.5000  16.0000  58.0000 Du        
   8522 ****        35.5000  16.0000  58.2500 Du        
   8523 ****        35.5000  16.0000  58.5000 Du        
   8524 ****        35.5000  16.0000  58.7500 Du        
   8525 ****        35.5000  16.0000  59.0000 Du        
   8526 ****        35.5000  16.0000  59.2500 Du        
   8527 ****        35.5000  16.2500  57.7500 Du        
   8528 ****        35.5000  16.2500  58.0000 Du        
   8529 ****        35.5000  16.2500  58.2500 Du        
   8530 ****        35.5000  16.2500  58.5000 Du        
   8531 ****        35.5000  16.2500  58.7500 Du        
   8532 ****        35.5000  16.2500  59.0000 Du        
   8533 ****        35.5000  16.2500  59.2500 Du        
   8534 ****        35.5000  16.5000  57.7500 Du        
   8535 ****        35.5000  16.5000  58.0000 Du        
   8536 ****        35.5000  16.5000  58.2500 Du        
   8537 ****        35.5000  16.5000  58.5000 Du        
   8538 ****        35.5000  16.5000  58.7500 Du        
   8539 ****        35.5000  16.5000  59.0000 Du        
   8540 ****        35.5000  16.5000  59.2500 Du        
   8541 ****        35.5000  16.5000  59.5000 Du        
   8542 ****        35.5000  16.7500  57.7500 Du        
   8543 ****        35.5000  16.7500  58.0000 Du        
   8544 ****        35.5000  16.7500  58.2500 Du        
   8545 ****        35.5000  16.7500  58.5000 Du        
   8546 ****        35.5000  16.7500  58.7500 Du        
   8547 ****        35.5000  16.7500  59.0000 Du        
   8548 ****        35.5000  16.7500  59.2500 Du        
   8549 ****        35.5000  16.7500  59.5000 Du        
   8550 ****        35.5000  16.7500  59.7500 Du        
   8551 ****        35.5000  17.0000  57.7500 Du        
   8552 ****        35.5000  17.0000  58.0000 Du        
   8553 ****        35.5000  17.0000  58.2500 Du        
   8554 ****        35.5000  17.0000  58.5000 Du        
   8555 ****        35.5000  17.0000  58.7500 Du        
   8556 ****        35.5000  17.0000  59.0000 Du        
   8557 ****        35.5000  17.0000  59.2500 Du        
   8558 ****        35.5000  17.0000  59.5000 Du        
   8559 ****        35.5000  17.0000  59.7500 Du        
   8560 ****        35.5000  17.2500  57.7500 Du        
   8561 ****        35.5000  17.2500  58.0000 Du        
   8562 ****        35.5000  17.2500  58.2500 Du        
   8563 ****        35.5000  17.2500  58.5000 Du        
   8564 ****        35.5000  17.2500  58.7500 Du        
   8565 ****        35.5000  17.2500  59.0000 Du        
   8566 ****        35.5000  17.2500  59.2500 Du        
   8567 ****        35.5000  17.2500  59.5000 Du        
   8568 ****        35.5000  17.2500  59.7500 Du        
   8569 ****        35.5000  17.2500  60.0000 Du        
   8570 ****        35.5000  17.5000  57.7500 Du        
   8571 ****        35.5000  17.5000  58.0000 Du        
   8572 ****        35.5000  17.5000  58.2500 Du        
   8573 ****        35.5000  17.5000  58.5000 Du        
   8574 ****        35.5000  17.5000  58.7500 Du        
   8575 ****        35.5000  17.5000  59.0000 Du        
   8576 ****        35.5000  17.5000  59.2500 Du        
   8577 ****        35.5000  17.5000  59.5000 Du        
   8578 ****        35.5000  17.5000  59.7500 Du        
   8579 ****        35.5000  17.5000  60.0000 Du        
   8580 ****        35.5000  17.7500  57.7500 Du        
   8581 ****        35.5000  17.7500  58.0000 Du        
   8582 ****        35.5000  17.7500  58.2500 Du        
   8583 ****        35.5000  17.7500  58.5000 Du        
   8584 ****        35.5000  17.7500  58.7500 Du        
   8585 ****        35.5000  17.7500  59.0000 Du        
   8586 ****        35.5000  17.7500  59.2500 Du        
   8587 ****        35.5000  17.7500  59.5000 Du        
   8588 ****        35.5000  17.7500  59.7500 Du        
   8589 ****        35.5000  18.0000  58.0000 Du        
   8590 ****        35.5000  18.0000  58.2500 Du        
   8591 ****        35.5000  18.0000  58.5000 Du        
   8592 ****        35.5000  18.0000  58.7500 Du        
   8593 ****        35.5000  18.0000  59.0000 Du        
   8594 ****        35.5000  18.0000  59.2500 Du        
   8595 ****        35.5000  18.0000  59.5000 Du        
   8596 ****        35.5000  18.0000  59.7500 Du        
   8597 ****        35.5000  18.2500  58.0000 Du        
   8598 ****        35.5000  18.2500  58.2500 Du        
   8599 ****        35.5000  18.2500  58.5000 Du        
   8600 ****        35.5000  18.2500  58.7500 Du        
   8601 ****        35.5000  18.2500  59.0000 Du        
   8602 ****        35.5000  18.2500  59.2500 Du        
   8603 ****        35.5000  18.2500  59.5000 Du        
   8604 ****        35.5000  18.2500  59.7500 Du        
   8605 ****        35.5000  18.5000  58.2500 Du        
   8606 ****        35.5000  18.5000  58.5000 Du        
   8607 ****        35.5000  18.5000  58.7500 Du        
   8608 ****        35.5000  18.5000  59.0000 Du        
   8609 ****        35.5000  18.5000  59.2500 Du        
   8610 ****        35.5000  18.5000  59.5000 Du        
   8611 ****        35.5000  18.7500  58.5000 Du        
   8612 ****        35.5000  18.7500  58.7500 Du        
   8613 ****        35.5000  18.7500  59.0000 Du        
   8614 ****        35.5000  18.7500  59.2500 Du        
   8615 ****        35.5000  18.7500  59.5000 Du        
   8616 ****        35.5000  19.0000  58.7500 Du        
   8617 ****        35.5000  19.0000  59.0000 Du        
   8618 ****        35.5000  19.0000  59.2500 Du        
   8619 ****        35.5000  19.0000  59.5000 Du        
   8620 ****        35.5000  19.2500  59.0000 Du        
   8621 ****        35.5000  19.2500  59.2500 Du        
   8622 ****        35.5000  19.2500  59.5000 Du        
   8623 ****        35.5000  19.5000  59.2500 Du        
   8624 ****        35.5000  19.5000  59.5000 Du        
   8625 ****        35.5000  21.2500  60.2500 Du        
   8626 ****        35.5000  21.5000  60.5000 Du        
   8627 ****        35.5000  21.7500  60.5000 Du        
   8628 ****        35.7500  13.0000  56.7500 Du        
   8629 ****        35.7500  13.0000  57.0000 Du        
   8630 ****        35.7500  13.2500  56.2500 Du        
   8631 ****        35.7500  13.2500  56.5000 Du        
   8632 ****        35.7500  13.2500  56.7500 Du        
   8633 ****        35.7500  13.2500  57.0000 Du        
   8634 ****        35.7500  13.2500  57.2500 Du        
   8635 ****        35.7500  13.5000  56.2500 Du        
   8636 ****        35.7500  13.5000  56.5000 Du        
   8637 ****        35.7500  13.5000  56.7500 Du        
   8638 ****        35.7500  13.5000  57.0000 Du        
   8639 ****        35.7500  13.5000  57.2500 Du        
   8640 ****        35.7500  13.7500  56.5000 Du        
   8641 ****        35.7500  13.7500  56.7500 Du        
   8642 ****        35.7500  13.7500  57.0000 Du        
   8643 ****        35.7500  13.7500  57.2500 Du        
   8644 ****        35.7500  14.0000  57.0000 Du        
   8645 ****        35.7500  14.0000  57.2500 Du        
   8646 ****        35.7500  15.0000  58.0000 Du        
   8647 ****        35.7500  15.0000  58.2500 Du        
   8648 ****        35.7500  15.2500  58.2500 Du        
   8649 ****        35.7500  15.2500  58.5000 Du        
   8650 ****        35.7500  15.2500  58.7500 Du        
   8651 ****        35.7500  15.5000  58.2500 Du        
   8652 ****        35.7500  15.5000  58.5000 Du        
   8653 ****        35.7500  15.5000  58.7500 Du        
   8654 ****        35.7500  15.7500  58.2500 Du        
   8655 ****        35.7500  15.7500  58.5000 Du        
   8656 ****        35.7500  15.7500  58.7500 Du        
   8657 ****        35.7500  15.7500  59.0000 Du        
   8658 ****        35.7500  16.0000  58.0000 Du        
   8659 ****        35.7500  16.0000  58.2500 Du        
   8660 ****        35.7500  16.0000  58.5000 Du        
   8661 ****        35.7500  16.0000  58.7500 Du        
   8662 ****        35.7500  16.0000  59.0000 Du        
   8663 ****        35.7500  16.0000  59.2500 Du        
   8664 ****        35.7500  16.2500  58.0000 Du        
   8665 ****        35.7500  16.2500  58.2500 Du        
   8666 ****        35.7500  16.2500  58.5000 Du        
   8667 ****        35.7500  16.2500  58.7500 Du        
   8668 ****        35.7500  16.2500  59.0000 Du        
   8669 ****        35.7500  16.2500  59.2500 Du        
   8670 ****        35.7500  16.5000  58.0000 Du        
   8671 ****        35.7500  16.5000  58.2500 Du        
   8672 ****        35.7500  16.5000  58.5000 Du        
   8673 ****        35.7500  16.5000  58.7500 Du        
   8674 ****        35.7500  16.5000  59.0000 Du        
   8675 ****        35.7500  16.5000  59.2500 Du        
   8676 ****        35.7500  16.5000  59.5000 Du        
   8677 ****        35.7500  16.7500  58.0000 Du        
   8678 ****        35.7500  16.7500  58.2500 Du        
   8679 ****        35.7500  16.7500  58.5000 Du        
   8680 ****        35.7500  16.7500  58.7500 Du        
   8681 ****        35.7500  16.7500  59.0000 Du        
   8682 ****        35.7500  16.7500  59.2500 Du        
   8683 ****        35.7500  16.7500  59.5000 Du        
   8684 ****        35.7500  16.7500  59.7500 Du        
   8685 ****        35.7500  17.0000  57.7500 Du        
   8686 ****        35.7500  17.0000  58.0000 Du        
   8687 ****        35.7500  17.0000  58.2500 Du        
   8688 ****        35.7500  17.0000  58.5000 Du        
   8689 ****        35.7500  17.0000  58.7500 Du        
   8690 ****        35.7500  17.0000  59.0000 Du        
   8691 ****        35.7500  17.0000  59.2500 Du        
   8692 ****        35.7500  17.0000  59.5000 Du        
   8693 ****        35.7500  17.0000  59.7500 Du        
   8694 ****        35.7500  17.2500  57.7500 Du        
   8695 ****        35.7500  17.2500  58.0000 Du        
   8696 ****        35.7500  17.2500  58.2500 Du        
   8697 ****        35.7500  17.2500  58.5000 Du        
   8698 ****        35.7500  17.2500  58.7500 Du        
   8699 ****        35.7500  17.2500  59.0000 Du        
   8700 ****        35.7500  17.2500  59.2500 Du        
   8701 ****        35.7500  17.2500  59.5000 Du        
   8702 ****        35.7500  17.2500  59.7500 Du        
   8703 ****        35.7500  17.5000  57.7500 Du        
   8704 ****        35.7500  17.5000  58.0000 Du        
   8705 ****        35.7500  17.5000  58.2500 Du        
   8706 ****        35.7500  17.5000  58.5000 Du        
   8707 ****        35.7500  17.5000  58.7500 Du        
   8708 ****        35.7500  17.5000  59.0000 Du        
   8709 ****        35.7500  17.5000  59.2500 Du        
   8710 ****        35.7500  17.5000  59.5000 Du        
   8711 ****        35.7500  17.5000  59.7500 Du        
   8712 ****        35.7500  17.7500  57.7500 Du        
   8713 ****        35.7500  17.7500  58.0000 Du        
   8714 ****        35.7500  17.7500  58.2500 Du        
   8715 ****        35.7500  17.7500  58.5000 Du        
   8716 ****        35.7500  17.7500  58.7500 Du        
   8717 ****        35.7500  17.7500  59.0000 Du        
   8718 ****        35.7500  17.7500  59.2500 Du        
   8719 ****        35.7500  17.7500  59.5000 Du        
   8720 ****        35.7500  17.7500  59.7500 Du        
   8721 ****        35.7500  18.0000  58.0000 Du        
   8722 ****        35.7500  18.0000  58.2500 Du        
   8723 ****        35.7500  18.0000  58.5000 Du        
   8724 ****        35.7500  18.0000  58.7500 Du        
   8725 ****        35.7500  18.0000  59.0000 Du        
   8726 ****        35.7500  18.0000  59.2500 Du        
   8727 ****        35.7500  18.0000  59.5000 Du        
   8728 ****        35.7500  18.0000  59.7500 Du        
   8729 ****        35.7500  18.2500  58.2500 Du        
   8730 ****        35.7500  18.2500  58.5000 Du        
   8731 ****        35.7500  18.2500  58.7500 Du        
   8732 ****        35.7500  18.2500  59.0000 Du        
   8733 ****        35.7500  18.2500  59.2500 Du        
   8734 ****        35.7500  18.2500  59.5000 Du        
   8735 ****        35.7500  18.5000  58.5000 Du        
   8736 ****        35.7500  18.5000  58.7500 Du        
   8737 ****        35.7500  18.5000  59.0000 Du        
   8738 ****        35.7500  18.5000  59.2500 Du        
   8739 ****        35.7500  18.5000  59.5000 Du        
   8740 ****        35.7500  18.7500  58.7500 Du        
   8741 ****        35.7500  18.7500  59.0000 Du        
   8742 ****        35.7500  18.7500  59.2500 Du        
   8743 ****        35.7500  18.7500  59.5000 Du        
   8744 ****        35.7500  19.0000  59.0000 Du        
   8745 ****        35.7500  19.0000  59.2500 Du        
   8746 ****        35.7500  19.0000  59.5000 Du        
   8747 ****        35.7500  21.5000  60.5000 Du        
   8748 ****        35.7500  21.5000  60.7500 Du        
   8749 ****        35.7500  21.7500  60.5000 Du        
   8750 ****        35.7500  21.7500  60.7500 Du        
   8751 ****        35.7500  21.7500  61.0000 Du        
   8752 ****        35.7500  22.0000  60.5000 Du        
   8753 ****        35.7500  22.0000  60.7500 Du        
   8754 ****        35.7500  22.0000  61.0000 Du        
   8755 ****        35.7500  22.2500  60.7500 Du        
   8756 ****        35.7500  22.2500  61.0000 Du        
   8757 ****        35.7500  22.2500  61.2500 Du        
   8758 ****        36.0000  15.7500  58.5000 Du        
   8759 ****        36.0000  15.7500  58.7500 Du        
   8760 ****        36.0000  16.0000  58.5000 Du        
   8761 ****        36.0000  16.0000  58.7500 Du        
   8762 ****        36.0000  16.0000  59.0000 Du        
   8763 ****        36.0000  16.2500  58.2500 Du        
   8764 ****        36.0000  16.2500  58.5000 Du        
   8765 ****        36.0000  16.2500  58.7500 Du        
   8766 ****        36.0000  16.2500  59.0000 Du        
   8767 ****        36.0000  16.2500  59.2500 Du        
   8768 ****        36.0000  16.5000  58.2500 Du        
   8769 ****        36.0000  16.5000  58.5000 Du        
   8770 ****        36.0000  16.5000  58.7500 Du        
   8771 ****        36.0000  16.5000  59.0000 Du        
   8772 ****        36.0000  16.5000  59.2500 Du        
   8773 ****        36.0000  16.7500  58.0000 Du        
   8774 ****        36.0000  16.7500  58.2500 Du        
   8775 ****        36.0000  16.7500  58.5000 Du        
   8776 ****        36.0000  16.7500  58.7500 Du        
   8777 ****        36.0000  16.7500  59.0000 Du        
   8778 ****        36.0000  16.7500  59.2500 Du        
   8779 ****        36.0000  16.7500  59.5000 Du        
   8780 ****        36.0000  17.0000  58.0000 Du        
   8781 ****        36.0000  17.0000  58.2500 Du        
   8782 ****        36.0000  17.0000  58.5000 Du        
   8783 ****        36.0000  17.0000  58.7500 Du        
   8784 ****        36.0000  17.0000  59.0000 Du        
   8785 ****        36.0000  17.0000  59.2500 Du        
   8786 ****        36.0000  17.0000  59.5000 Du        
   8787 ****        36.0000  17.0000  59.7500 Du        
   8788 ****        36.0000  17.2500  58.0000 Du        
   8789 ****        36.0000  17.2500  58.2500 Du        
   8790 ****        36.0000  17.2500  58.5000 Du        
   8791 ****        36.0000  17.2500  58.7500 Du        
   8792 ****        36.0000  17.2500  59.0000 Du        
   8793 ****        36.0000  17.2500  59.2500 Du        
   8794 ****        36.0000  17.2500  59.5000 Du        
   8795 ****        36.0000  17.2500  59.7500 Du        
   8796 ****        36.0000  17.5000  58.0000 Du        
   8797 ****        36.0000  17.5000  58.2500 Du        
   8798 ****        36.0000  17.5000  58.5000 Du        
   8799 ****        36.0000  17.5000  58.7500 Du        
   8800 ****        36.0000  17.5000  59.0000 Du        
   8801 ****        36.0000  17.5000  59.2500 Du        
   8802 ****        36.0000  17.5000  59.5000 Du        
   8803 ****        36.0000  17.5000  59.7500 Du        
   8804 ****        36.0000  17.7500  58.0000 Du        
   8805 ****        36.0000  17.7500  58.2500 Du        
   8806 ****        36.0000  17.7500  58.5000 Du        
   8807 ****        36.0000  17.7500  58.7500 Du        
   8808 ****        36.0000  17.7500  59.0000 Du        
   8809 ****        36.0000  17.7500  59.2500 Du        
   8810 ****        36.0000  17.7500  59.5000 Du        
   8811 ****        36.0000  17.7500  59.7500 Du        
   8812 ****        36.0000  18.0000  58.0000 Du        
   8813 ****        36.0000  18.0000  58.2500 Du        
   8814 ****        36.0000  18.0000  58.5000 Du        
   8815 ****        36.0000  18.0000  58.7500 Du        
   8816 ****        36.0000  18.0000  59.0000 Du        
   8817 ****        36.0000  18.0000  59.2500 Du        
   8818 ****        36.0000  18.0000  59.5000 Du        
   8819 ****        36.0000  18.2500  58.2500 Du        
   8820 ****        36.0000  18.2500  58.5000 Du        
   8821 ****        36.0000  18.2500  58.7500 Du        
   8822 ****        36.0000  18.2500  59.0000 Du        
   8823 ****        36.0000  18.2500  59.2500 Du        
   8824 ****        36.0000  18.2500  59.5000 Du        
   8825 ****        36.0000  18.5000  58.7500 Du        
   8826 ****        36.0000  18.5000  59.0000 Du        
   8827 ****        36.0000  18.5000  59.2500 Du        
   8828 ****        36.0000  18.5000  59.5000 Du        
   8829 ****        36.0000  18.7500  59.0000 Du        
   8830 ****        36.0000  18.7500  59.2500 Du        
   8831 ****        36.0000  21.7500  60.7500 Du        
   8832 ****        36.0000  21.7500  61.0000 Du        
   8833 ****        36.0000  21.7500  61.2500 Du        
   8834 ****        36.0000  22.0000  60.7500 Du        
   8835 ****        36.0000  22.0000  61.0000 Du        
   8836 ****        36.0000  22.0000  61.2500 Du        
   8837 ****        36.0000  22.0000  61.5000 Du        
   8838 ****        36.0000  22.2500  60.7500 Du        
   8839 ****        36.0000  22.2500  61.0000 Du        
   8840 ****        36.0000  22.2500  61.2500 Du        
   8841 ****        36.0000  22.2500  61.5000 Du        
   8842 ****        36.0000  22.2500  61.7500 Du        
   8843 ****        36.0000  22.5000  61.5000 Du        
   8844 ****        36.0000  22.5000  61.7500 Du        
   8845 ****        36.0000  22.7500  61.5000 Du        
   8846 ****        36.0000  22.7500  61.7500 Du        
   8847 ****        36.0000  23.0000  61.7500 Du        
   8848 ****        36.2500  16.2500  58.7500 Du        
   8849 ****        36.2500  16.5000  58.5000 Du        
   8850 ****        36.2500  16.5000  58.7500 Du        
   8851 ****        36.2500  16.5000  59.0000 Du        
   8852 ****        36.2500  16.7500  58.5000 Du        
   8853 ****        36.2500  16.7500  58.7500 Du        
   8854 ****        36.2500  16.7500  59.0000 Du        
   8855 ****        36.2500  16.7500  59.2500 Du        
   8856 ****        36.2500  17.0000  58.2500 Du        
   8857 ****        36.2500  17.0000  58.5000 Du        
   8858 ****        36.2500  17.0000  58.7500 Du        
   8859 ****        36.2500  17.0000  59.0000 Du        
   8860 ****        36.2500  17.0000  59.2500 Du        
   8861 ****        36.2500  17.0000  59.5000 Du        
   8862 ****        36.2500  17.2500  58.0000 Du        
   8863 ****        36.2500  17.2500  58.2500 Du        
   8864 ****        36.2500  17.2500  58.5000 Du        
   8865 ****        36.2500  17.2500  58.7500 Du        
   8866 ****        36.2500  17.2500  59.0000 Du        
   8867 ****        36.2500  17.2500  59.2500 Du        
   8868 ****        36.2500  17.2500  59.5000 Du        
   8869 ****        36.2500  17.5000  58.0000 Du        
   8870 ****        36.2500  17.5000  58.2500 Du        
   8871 ****        36.2500  17.5000  58.5000 Du        
   8872 ****        36.2500  17.5000  58.7500 Du        
   8873 ****        36.2500  17.5000  59.0000 Du        
   8874 ****        36.2500  17.5000  59.2500 Du        
   8875 ****        36.2500  17.5000  59.5000 Du        
   8876 ****        36.2500  17.7500  58.0000 Du        
   8877 ****        36.2500  17.7500  58.2500 Du        
   8878 ****        36.2500  17.7500  58.5000 Du        
   8879 ****        36.2500  17.7500  58.7500 Du        
   8880 ****        36.2500  17.7500  59.0000 Du        
   8881 ****        36.2500  17.7500  59.2500 Du        
   8882 ****        36.2500  17.7500  59.5000 Du        
   8883 ****        36.2500  18.0000  58.2500 Du        
   8884 ****        36.2500  18.0000  58.5000 Du        
   8885 ****        36.2500  18.0000  58.7500 Du        
   8886 ****        36.2500  18.0000  59.0000 Du        
   8887 ****        36.2500  18.0000  59.2500 Du        
   8888 ****        36.2500  18.0000  59.5000 Du        
   8889 ****        36.2500  18.2500  58.5000 Du        
   8890 ****        36.2500  18.2500  58.7500 Du        
   8891 ****        36.2500  18.2500  59.0000 Du        
   8892 ****        36.2500  18.2500  59.2500 Du        
   8893 ****        36.2500  18.2500  59.5000 Du        
   8894 ****        36.2500  18.5000  59.0000 Du        
   8895 ****        36.2500  18.5000  59.2500 Du        
   8896 ****        36.2500  22.0000  61.0000 Du        
   8897 ****        36.2500  22.0000  61.5000 Du        
   8898 ****        36.2500  22.2500  61.0000 Du        
   8899 ****        36.2500  22.2500  61.2500 Du        
   8900 ****        36.2500  22.2500  61.5000 Du        
   8901 ****        36.2500  22.2500  61.7500 Du        
   8902 ****        36.2500  22.5000  61.5000 Du        
   8903 ****        36.2500  22.5000  61.7500 Du        
   8904 ****        36.2500  22.7500  61.5000 Du        
   8905 ****        36.2500  22.7500  61.7500 Du        
   8906 ****        36.2500  22.7500  62.0000 Du        
   8907 ****        36.2500  23.0000  61.5000 Du        
   8908 ****        36.2500  23.0000  61.7500 Du        
   8909 ****        36.2500  23.0000  62.0000 Du        
   8910 ****        36.5000  16.7500  58.7500 Du        
   8911 ****        36.5000  16.7500  59.0000 Du        
   8912 ****        36.5000  17.0000  58.5000 Du        
   8913 ****        36.5000  17.0000  58.7500 Du        
   8914 ****        36.5000  17.0000  59.0000 Du        
   8915 ****        36.5000  17.0000  59.2500 Du        
   8916 ****        36.5000  17.2500  58.2500 Du        
   8917 ****        36.5000  17.2500  58.5000 Du        
   8918 ****        36.5000  17.2500  58.7500 Du        
   8919 ****        36.5000  17.2500  59.0000 Du        
   8920 ****        36.5000  17.2500  59.2500 Du        
   8921 ****        36.5000  17.5000  58.2500 Du        
   8922 ****        36.5000  17.5000  58.5000 Du        
   8923 ****        36.5000  17.5000  58.7500 Du        
   8924 ****        36.5000  17.5000  59.0000 Du        
   8925 ****        36.5000  17.5000  59.2500 Du        
   8926 ****        36.5000  17.7500  58.2500 Du        
   8927 ****        36.5000  17.7500  58.5000 Du        
   8928 ****        36.5000  17.7500  58.7500 Du        
   8929 ****        36.5000  17.7500  59.0000 Du        
   8930 ****        36.5000  17.7500  59.2500 Du        
   8931 ****        36.5000  18.0000  58.5000 Du        
   8932 ****        36.5000  18.0000  58.7500 Du        
   8933 ****        36.5000  18.0000  59.0000 Du        
   8934 ****        36.5000  18.0000  59.2500 Du        
   8935 ****        36.5000  18.2500  58.7500 Du        
   8936 ****        36.5000  18.2500  59.0000 Du        
   8937 ****        36.5000  18.2500  59.2500 Du        
   8938 ****        36.5000  18.5000  59.0000 Du        
   8939 ****        36.5000  22.5000  61.5000 Du        
   8940 ****        36.5000  22.5000  61.7500 Du        
   8941 ****        36.5000  22.7500  61.5000 Du        
   8942 ****        36.5000  22.7500  61.7500 Du        
   8943 ****        36.5000  22.7500  62.0000 Du        
   8944 ****        36.5000  23.0000  61.7500 Du        
   8945 ****        36.5000  23.0000  62.0000 Du        
   8946 ****        36.5000  23.2500  62.0000 Du        
   8947 ****        36.7500  17.2500  58.7500 Du        
   8948 ****        36.7500  17.2500  59.0000 Du        
   8949 ****        36.7500  17.5000  58.5000 Du        
   8950 ****        36.7500  17.5000  58.7500 Du        
   8951 ****        36.7500  17.5000  59.0000 Du        
   8952 ****        36.7500  17.7500  58.5000 Du        
   8953 ****        36.7500  17.7500  58.7500 Du        
   8954 ****        36.7500  17.7500  59.0000 Du        
   8955 ****        36.7500  18.0000  58.7500 Du        
   8956 ****        36.7500  18.0000  59.0000 Du        
   8957 ****        36.7500  18.2500  59.0000 Du        
   8958 ****        36.7500  23.0000  61.7500 Du        
   8959 ****        36.7500  23.0000  62.0000 Du        
   8960 ****        36.7500  23.2500  62.0000 Du        
   8961 ****        36.7500  23.2500  62.2500 Du        
   8962 ****        36.7500  24.0000  57.7500 Du        
   8963 ****        36.7500  24.0000  58.0000 Du        
   8964 ****        36.7500  24.2500  58.0000 Du        
   8965 ****        37.0000  23.7500  57.2500 Du        
   8966 ****        37.0000  24.0000  57.2500 Du        
   8967 ****        37.0000  24.0000  57.5000 Du        
   8968 ****        37.0000  24.0000  57.7500 Du        
   8969 ****        37.0000  24.0000  58.0000 Du        
   8970 ****        37.0000  24.2500  57.7500 Du        
   8971 ****        37.0000  24.2500  58.0000 Du        
   8972 ****        37.0000  24.2500  58.2500 Du        
   8973 ****        37.0000  24.5000  57.7500 Du        
   8974 ****        37.0000  24.5000  58.0000 Du        
   8975 ****        37.0000  24.5000  58.2500 Du        
   8976 ****        37.0000  24.7500  58.0000 Du        
   8977 ****        37.2500  23.7500  57.2500 Du        
   8978 ****        37.2500  24.0000  57.0000 Du        
   8979 ****        37.2500  24.0000  57.2500 Du        
   8980 ****        37.2500  24.0000  57.5000 Du        
   8981 ****        37.2500  24.0000  57.7500 Du        
   8982 ****        37.2500  24.0000  58.0000 Du        
   8983 ****        37.2500  24.2500  57.2500 Du        
   8984 ****        37.2500  24.2500  57.5000 Du        
   8985 ****        37.2500  24.2500  57.7500 Du        
   8986 ****        37.2500  24.2500  58.0000 Du        
   8987 ****        37.2500  24.2500  58.2500 Du        
   8988 ****        37.2500  24.5000  57.7500 Du        
   8989 ****        37.2500  24.5000  58.0000 Du        
   8990 ****        37.2500  24.5000  58.2500 Du        
   8991 ****        37.2500  24.7500  57.7500 Du        
   8992 ****        37.2500  24.7500  58.0000 Du        
   8993 ****        37.2500  24.7500  58.2500 Du        
   8994 ****        37.2500  25.0000  58.0000 Du        
   8995 ****        37.2500  25.0000  58.2500 Du        
   8996 ****        37.5000  24.0000  57.2500 Du        
   8997 ****        37.5000  24.0000  57.5000 Du        
   8998 ****        37.5000  24.0000  57.7500 Du        
   8999 ****        37.5000  24.0000  58.0000 Du        
   9000 ****        37.5000  24.2500  57.2500 Du        
   9001 ****        37.5000  24.2500  57.5000 Du        
   9002 ****        37.5000  24.2500  57.7500 Du        
   9003 ****        37.5000  24.2500  58.0000 Du        
   9004 ****        37.5000  24.2500  58.2500 Du        
   9005 ****        37.5000  24.5000  57.7500 Du        
   9006 ****        37.5000  24.5000  58.0000 Du        
   9007 ****        37.5000  24.5000  58.2500 Du        
   9008 ****        37.5000  24.7500  57.7500 Du        
   9009 ****        37.5000  24.7500  58.0000 Du        
   9010 ****        37.5000  24.7500  58.2500 Du        
   9011 ****        37.5000  25.0000  58.0000 Du        
   9012 ****        37.7500  24.0000  57.2500 Du        
   9013 ****        37.7500  24.0000  57.5000 Du        
   9014 ****        37.7500  24.0000  57.7500 Du        
   9015 ****        37.7500  24.0000  58.0000 Du        
   9016 ****        37.7500  24.2500  57.5000 Du        
   9017 ****        37.7500  24.2500  57.7500 Du        
   9018 ****        37.7500  24.2500  58.0000 Du        
   9019 ****        37.7500  24.2500  58.2500 Du        
   9020 ****        37.7500  24.5000  57.7500 Du        
   9021 ****        37.7500  24.5000  58.0000 Du        
   9022 ****        37.7500  24.5000  58.2500 Du        
   9023 ****        37.7500  24.7500  58.0000 Du        
   9024 ****        37.7500  24.7500  58.2500 Du        
   9025 ****        37.7500  25.0000  58.0000 Du        
   9026 ****        38.0000  24.0000  57.7500 Du        
   9027 ****        38.0000  24.0000  58.0000 Du        
   9028 ****        38.0000  24.0000  58.2500 Du        
   9029 ****        38.0000  24.2500  57.7500 Du        
   9030 ****        38.0000  24.2500  58.0000 Du        
   9031 ****        38.0000  24.2500  58.2500 Du        
   9032 ****        38.0000  24.5000  58.0000 Du        
   9033 ****        38.0000  24.5000  58.2500 Du        
   9034 ****        38.0000  24.7500  58.0000 Du        
   9035 ****        38.0000  24.7500  58.2500 Du        
   9036 ****        38.2500  24.0000  57.7500 Du        
   9037 ****        38.2500  24.0000  58.0000 Du        
   9038 ****        38.2500  24.0000  58.2500 Du        
   9039 ****        38.2500  24.2500  58.0000 Du        
   9040 ****        38.2500  24.2500  58.2500 Du        
   9041 ****        38.2500  24.5000  58.0000 Du        
   9042 ****        38.2500  24.5000  58.2500 Du        
   9043 ****        38.5000  23.7500  58.2500 Du        
   9044 ****        38.5000  24.0000  58.0000 Du        
   9045 ****        38.5000  24.0000  58.2500 Du        
   9046 ****        38.5000  24.2500  58.0000 Du        
   9047 ****        38.5000  24.2500  58.2500 Du        
   9048 ****        38.5000  24.5000  58.2500 Du        
   9049 ****        38.7500  23.7500  58.0000 Du        
   9050 ****        38.7500  23.7500  58.2500 Du        
   9051 ****        38.7500  24.0000  58.0000 Du        
   9052 ****        38.7500  24.0000  58.2500 Du        
   9053 ****        38.7500  24.2500  58.0000 Du        
   9054 ****        38.7500  24.2500  58.2500 Du        
   9055 ****        38.7500  24.5000  58.2500 Du        
   9056 ****        39.0000  23.7500  58.0000 Du        
   9057 ****        39.0000  23.7500  58.2500 Du        
   9058 ****        39.0000  24.0000  58.0000 Du        
   9059 ****        39.0000  24.0000  58.2500 Du        
   9060 ****        39.0000  24.2500  58.2500 Du        
   9061 ****        39.2500  23.7500  58.0000 Du        
   9062 ****        39.2500  23.7500  58.2500 Du        
   9063 ****        39.2500  23.7500  58.5000 Du        
   9064 ****        39.2500  24.0000  58.0000 Du        
   9065 ****        39.2500  24.0000  58.2500 Du        
   9066 ****        39.2500  24.0000  58.5000 Du        
   9067 ****        39.2500  24.0000  58.7500 Du        
   9068 ****        39.2500  24.2500  58.2500 Du        
   9069 ****        39.5000  23.2500  58.2500 Du        
   9070 ****        39.5000  23.5000  58.0000 Du        
   9071 ****        39.5000  23.5000  58.2500 Du        
   9072 ****        39.5000  23.7500  58.0000 Du        
   9073 ****        39.5000  23.7500  58.2500 Du        
   9074 ****        39.5000  24.0000  58.0000 Du        
   9075 ****        39.5000  24.0000  58.2500 Du        
   9076 ****        39.5000  24.2500  58.2500 Du        
   9077 ****        39.7500  23.2500  57.7500 Du        
   9078 ****        39.7500  23.2500  58.0000 Du        
   9079 ****        39.7500  23.2500  58.2500 Du        
   9080 ****        39.7500  23.5000  57.7500 Du        
   9081 ****        39.7500  23.5000  58.0000 Du        
   9082 ****        39.7500  23.5000  58.2500 Du        
   9083 ****        39.7500  23.5000  58.5000 Du        
   9084 ****        39.7500  23.7500  57.7500 Du        
   9085 ****        39.7500  23.7500  58.0000 Du        
   9086 ****        39.7500  23.7500  58.2500 Du        
   9087 ****        39.7500  23.7500  58.5000 Du        
   9088 ****        39.7500  23.7500  58.7500 Du        
   9089 ****        39.7500  24.0000  58.0000 Du        
   9090 ****        39.7500  24.0000  58.2500 Du        
   9091 ****        39.7500  24.0000  58.5000 Du        
   9092 ****        39.7500  24.2500  58.2500 Du        
   9093 ****        40.0000  23.0000  58.0000 Du        
   9094 ****        40.0000  23.0000  58.2500 Du        
   9095 ****        40.0000  23.2500  57.7500 Du        
   9096 ****        40.0000  23.2500  58.0000 Du        
   9097 ****        40.0000  23.2500  58.2500 Du        
   9098 ****        40.0000  23.2500  58.5000 Du        
   9099 ****        40.0000  23.5000  57.7500 Du        
   9100 ****        40.0000  23.5000  58.0000 Du        
   9101 ****        40.0000  23.5000  58.2500 Du        
   9102 ****        40.0000  23.5000  58.5000 Du        
   9103 ****        40.0000  23.7500  57.7500 Du        
   9104 ****        40.0000  23.7500  58.0000 Du        
   9105 ****        40.0000  23.7500  58.2500 Du        
   9106 ****        40.0000  23.7500  58.5000 Du        
   9107 ****        40.0000  23.7500  58.7500 Du        
   9108 ****        40.0000  24.0000  58.0000 Du        
   9109 ****        40.0000  24.0000  58.2500 Du        
   9110 ****        40.0000  24.0000  58.5000 Du        
   9111 ****        40.0000  24.0000  58.7500 Du        
   9112 ****        40.0000  24.2500  58.2500 Du        
   9113 ****        40.2500  23.0000  57.7500 Du        
   9114 ****        40.2500  23.0000  58.0000 Du        
   9115 ****        40.2500  23.2500  57.5000 Du        
   9116 ****        40.2500  23.2500  57.7500 Du        
   9117 ****        40.2500  23.2500  58.0000 Du        
   9118 ****        40.2500  23.2500  58.2500 Du        
   9119 ****        40.2500  23.5000  57.7500 Du        
   9120 ****        40.2500  23.5000  58.0000 Du        
   9121 ****        40.2500  23.5000  58.2500 Du        
   9122 ****        40.2500  23.7500  57.7500 Du        
   9123 ****        40.2500  23.7500  58.0000 Du        
   9124 ****        40.2500  23.7500  58.2500 Du        
   9125 ****        40.2500  23.7500  58.5000 Du        
   9126 ****        40.2500  24.0000  58.0000 Du        
   9127 ****        40.2500  24.0000  58.2500 Du        
   9128 ****        40.2500  24.0000  58.5000 Du        
   9129 ****        40.2500  24.2500  58.2500 Du        
