#       Name:                CT1002167954
#       Creating user name   hitesit
#       Creation time:       Sun Apr 16 22:50:13 2023


#       File generated by GOLD software.
#

@<TRIPOS>MOLECULE
CT1002167954|ligand_prepared|mol2|1|dock5
    29    30     1
SMALL
NO_CHARGES


@<TRIPOS>ATOM
      1 C1          32.3593  19.0297  58.7722 C.3            1 RES1               0.0000
      2 C2          33.4681  17.9742  58.5842 C.ar           1 RES1               0.0000
      3 C3          31.5736  19.0633  57.4646 C.2            1 RES1               0.0000
      4 C4          31.5418  18.5796  59.9779 C.2            1 RES1               0.0000
      5 C5          32.8932  20.4521  59.0611 C.3            1 RES1               0.0000
      6 C6          34.6462  18.0450  59.3216 C.ar           1 RES1               0.0000
      7 C7          33.3263  16.9242  57.6808 C.ar           1 RES1               0.0000
      8 N8          30.3338  18.4952  57.4577 N.am           1 RES1               0.0000
      9 O9          32.0505  19.5456  56.4447 O.2            1 RES1               0.0000
     10 N10         30.2390  18.2099  59.7684 N.am           1 RES1               0.0000
     11 O11         32.0189  18.5259  61.1047 O.2            1 RES1               0.0000
     12 C12         31.8322  21.5369  58.9628 C.3            1 RES1               0.0000
     13 C13         35.6453  17.0988  59.1638 C.ar           1 RES1               0.0000
     14 C14         34.3268  15.9792  57.5244 C.ar           1 RES1               0.0000
     15 C15         29.6071  18.1180  58.5583 C.2            1 RES1               0.0000
     16 C16         35.4862  16.0652  58.2655 C.ar           1 RES1               0.0000
     17 O17         28.4495  17.7249  58.4453 O.2            1 RES1               0.0000
     18 H18         33.3237  20.4695  60.0699 H              1 RES1               0.0000
     19 H19         33.6969  20.6788  58.3496 H              1 RES1               0.0000
     20 H20         34.7903  18.8527  60.0314 H              1 RES1               0.0000
     21 H21         32.4232  16.8372  57.0863 H              1 RES1               0.0000
     22 H22         29.9075  18.3361  56.5503 H              1 RES1               0.0000
     23 H23         29.6894  17.9822  60.5909 H              1 RES1               0.0000
     24 H24         32.2597  22.5147  59.1745 H              1 RES1               0.0000
     25 H25         31.4003  21.5648  57.9646 H              1 RES1               0.0000
     26 H26         31.0293  21.3567  59.6747 H              1 RES1               0.0000
     27 H27         36.5564  17.1718  59.7484 H              1 RES1               0.0000
     28 H28         34.1975  15.1677  56.8159 H              1 RES1               0.0000
     29 H29         36.2688  15.3239  58.1424 H              1 RES1               0.0000
@<TRIPOS>BOND
    1    1    2 1     
    2    1    3 1     
    3    1    4 1     
    4    1    5 1     
    5    2    6 ar    
    6    2    7 ar    
    7    3    8 1     
    8    3    9 2     
    9    4   10 1     
   10    4   11 2     
   11    5   12 1     
   12    5   18 1     
   13    5   19 1     
   14    6   13 ar    
   15    6   20 1     
   16    7   14 ar    
   17    7   21 1     
   18    8   15 1     
   19    8   22 1     
   20   10   15 1     
   21   10   23 1     
   22   12   24 1     
   23   12   25 1     
   24   12   26 1     
   25   13   16 ar    
   26   13   27 1     
   27   14   16 ar    
   28   14   28 1     
   29   15   17 2     
   30   16   29 1     
@<TRIPOS>SUBSTRUCTURE
      1 RES1           1
@<TRIPOS>SET
DONOR_HYDROGENS      STATIC     ATOMS    <user>   **** ""
2 22 23
ATOM$RED        STATIC     ATOMS    COLORGROUP SYSTEM
2 22 23
@<TRIPOS>COMMENT
> <Gold.Version>
2022.3.0

> <Gold.Id.Protein>
unknown|3l9n_clean|pdb

> <Gold.Protein.RotatedTorsions>
[ 2826 2819 2817 2814 ] final  -92.13 input   59.97 | X-H torsion
[ 5145 5136 5135 5133 ] final   85.80 input   59.99 | X-H torsion
[ 1819 1812 1811 1809 ] final  -21.87 input   59.98 | X-H torsion
[ 2506 2497 2496 2494 ] final   51.21 input   59.98 | X-H torsion
[ 2581 2570 2569 2568 ] final   52.63 input   60.01 | X-H torsion
[ 3119 3112 3110 3107 ] final  139.86 input   60.01 | X-H torsion

> <Gold.Protein.ActiveResidues>
 THR48   LEU49   GLY50   THR51   GLY52   SER53   PHE54   GLY55   ARG56   VAL57  
 MET58   LEU59   TYR69   ALA70   MET71   LYS72   ILE73   LEU74   GLU91   LEU95  
 VAL104  LYS105  LEU106  MET118  VAL119  MET120  GLU121  TYR122  ALA123  PRO124 
 GLY125  GLY126  GLU127  MET128  PHE129  TYR164  ASP166  LYS168  PRO169  GLU170 
 ASN171  LEU172  MET173  ILE174  ASP175  LYS181  VAL182  THR183  ASP184  PHE185 
 GLY186  PHE187  THR201  PHE327  ASP328  TYR330 

> <Gold.Protein.RotatedAtoms>
   41.0991   11.2992   56.8020 H   0  0  0  0  0  0  0  0  0  0  0  0  # atno 1819 bound_to 1812
   26.7312   20.2316   52.6471 H   0  0  0  0  0  0  0  0  0  0  0  0  # atno 2506 bound_to 2497
   29.1941   27.9447   57.0682 H   0  0  0  0  0  0  0  0  0  0  0  0  # atno 2581 bound_to 2570
   29.0748   26.5215   57.9102 H   0  0  0  0  0  0  0  0  0  0  0  0  # atno 2582 bound_to 2570
   30.5660   27.1209   57.5025 H   0  0  0  0  0  0  0  0  0  0  0  0  # atno 2583 bound_to 2570
   30.8444   18.1342   54.2260 H   0  0  0  0  0  0  0  0  0  0  0  0  # atno 2826 bound_to 2819
   28.0707   28.3132   55.4368 H   0  0  0  0  0  0  0  0  0  0  0  0  # atno 3119 bound_to 3112
   38.8662   21.4291   61.2827 H   0  0  0  0  0  0  0  0  0  0  0  0  # atno 5145 bound_to 5136
   30.6650   18.0969   55.8431 LP  0  0  0  0  0  0  0  0  0  0  0  0  # atno 5479 bound_to 2819
   29.5360   18.8188   54.9099 LP  0  0  0  0  0  0  0  0  0  0  0  0  # atno 5480 bound_to 2819
   40.3954   21.2315   60.7631 LP  0  0  0  0  0  0  0  0  0  0  0  0  # atno 5483 bound_to 5136
   39.9738   22.5851   61.5735 LP  0  0  0  0  0  0  0  0  0  0  0  0  # atno 5484 bound_to 5136
   41.7824   10.0621   55.9950 LP  0  0  0  0  0  0  0  0  0  0  0  0  # atno 5511 bound_to 1812
   41.5290    9.9500   57.6043 LP  0  0  0  0  0  0  0  0  0  0  0  0  # atno 5512 bound_to 1812
   26.3243   21.3696   53.7367 LP  0  0  0  0  0  0  0  0  0  0  0  0  # atno 5533 bound_to 2497
   27.2124   21.7703   52.4262 LP  0  0  0  0  0  0  0  0  0  0  0  0  # atno 5534 bound_to 2497
   26.8817   28.8508   56.4085 LP  0  0  0  0  0  0  0  0  0  0  0  0  # atno 5545 bound_to 3112
   28.4340   28.8905   56.9139 LP  0  0  0  0  0  0  0  0  0  0  0  0  # atno 5546 bound_to 3112

> <Gold.Score>
     Fitness  S(hb_ext) S(vdw_ext)  S(hb_int)    S(int)      intcor
     35.48       1.59      25.28       0.00      -0.87      -0.76

> <Gold.Goldscore.Fitness>
35.4783

> <Gold.Goldscore.Internal.Vdw>
-1.0410

> <Gold.Goldscore.Internal.Torsion>
-0.5952

> <Gold.Goldscore.External.Vdw>
25.2763

> <Gold.Goldscore.Internal.HBond>
0.0000

> <Gold.Goldscore.External.HBond>
1.5947

> <Gold.Goldscore.Internal.Correction>
-0.7650

> <Gold.Goldscore.Hbonds>
donor molecule, donor type, donor heavy atom, donor atom, acceptor molecule, acceptor atom, score
      P1  H   936   949       L1    17  0.13
      L1  H     8    22       P1  2819  0.40

> <Gold.Goldscore.Internal.Vdw.Weighted>
-1.0410

> <Gold.Goldscore.Internal.Torsion.Weighted>
-0.5952

> <Gold.Goldscore.External.Vdw.Weighted>
34.7549

> <Gold.Goldscore.Internal.HBond.Weighted>
0.0000

> <Gold.Goldscore.External.HBond.Weighted>
1.5947

> <Gold.Goldscore.Internal.Correction.Weighted>
-0.7650

> <Gold.Rescore>
     Score     S(PLP)   S(hbond)     S(cho)   S(metal)  DE(clash)   DE(tors)     intcor
     34.48     -34.43       0.55       0.00       0.00       0.08       0.77       ----

> <Gold.PLP.Fitness>
34.4826

> <Gold.PLP.PLP>
-34.4339

> <Gold.PLP.part.hbond>
-2.0000

> <Gold.PLP.part.metal>
0.0000

> <Gold.PLP.part.buried>
1.7085

> <Gold.PLP.part.nonpolar>
-35.1657

> <Gold.PLP.part.repulsive>
1.0294

> <Gold.PLP.ligand.clash>
0.0771

> <Gold.PLP.ligand.torsion>
0.7686

> <Gold.PLP.Chemscore.Hbond>
0.5543

> <Gold.PLP.Chemscore.CHOScore>
0.0000

> <Gold.PLP.Chemscore.Metal>
0.0000

> <Gold.Chemscore.Hbonds>
donor molecule, donor type, donor heavy atom, donor atom, acceptor molecule, acceptor atom, score
      L1  H     8    22       P1  2819  0.82

> <Gold.PLP.Chemscore.Internal.Correction>
   9.000000E+99

