#       Name:                CT1002167954
#       Creating user name   hitesit
#       Creation time:       Sun Apr 16 22:50:15 2023


#       File generated by GOLD software.
#

@<TRIPOS>MOLECULE
CT1002167954|ligand_prepared|mol2|1|dock7
    29    30     1
SMALL
NO_CHARGES


@<TRIPOS>ATOM
      1 C1          31.8205  18.6679  58.8393 C.3            1 RES1               0.0000
      2 C2          31.0993  17.3569  58.4654 C.ar           1 RES1               0.0000
      3 C3          31.5655  19.6398  57.6909 C.2            1 RES1               0.0000
      4 C4          31.2319  19.1131  60.1734 C.2            1 RES1               0.0000
      5 C5          33.3484  18.5109  59.0198 C.3            1 RES1               0.0000
      6 C6          29.7188  17.2440  58.6011 C.ar           1 RES1               0.0000
      7 C7          31.7992  16.2547  57.9819 C.ar           1 RES1               0.0000
      8 N8          30.6809  20.6550  57.9070 N.am           1 RES1               0.0000
      9 O9          32.1024  19.4944  56.5997 O.2            1 RES1               0.0000
     10 N10         30.5093  20.2772  60.2000 N.am           1 RES1               0.0000
     11 O11         31.3732  18.4579  61.1986 O.2            1 RES1               0.0000
     12 C12         34.0272  19.7427  59.5978 C.3            1 RES1               0.0000
     13 C13         29.0615  16.0728  58.2628 C.ar           1 RES1               0.0000
     14 C14         31.1400  15.0842  57.6444 C.ar           1 RES1               0.0000
     15 C15         30.1812  21.0523  59.1212 C.2            1 RES1               0.0000
     16 C16         29.7715  14.9924  57.7839 C.ar           1 RES1               0.0000
     17 O17         29.4812  22.0563  59.2170 O.2            1 RES1               0.0000
     18 H18         33.5398  17.6584  59.6830 H              1 RES1               0.0000
     19 H19         33.7978  18.2849  58.0450 H              1 RES1               0.0000
     20 H20         29.1437  18.0829  58.9786 H              1 RES1               0.0000
     21 H21         32.8765  16.3039  57.8649 H              1 RES1               0.0000
     22 H22         30.3613  21.1660  57.0903 H              1 RES1               0.0000
     23 H23         30.1861  20.5954  61.1081 H              1 RES1               0.0000
     24 H24         35.0976  19.5792  59.7038 H              1 RES1               0.0000
     25 H25         33.8785  20.6045  58.9506 H              1 RES1               0.0000
     26 H26         33.6221  19.9817  60.5789 H              1 RES1               0.0000
     27 H27         27.9845  16.0051  58.3757 H              1 RES1               0.0000
     28 H28         31.7028  14.2362  57.2684 H              1 RES1               0.0000
     29 H29         29.2563  14.0751  57.5186 H              1 RES1               0.0000
@<TRIPOS>BOND
    1    1    2 1     
    2    1    3 1     
    3    1    4 1     
    4    1    5 1     
    5    2    6 ar    
    6    2    7 ar    
    7    3    8 1     
    8    3    9 2     
    9    4   10 1     
   10    4   11 2     
   11    5   12 1     
   12    5   18 1     
   13    5   19 1     
   14    6   13 ar    
   15    6   20 1     
   16    7   14 ar    
   17    7   21 1     
   18    8   15 1     
   19    8   22 1     
   20   10   15 1     
   21   10   23 1     
   22   12   24 1     
   23   12   25 1     
   24   12   26 1     
   25   13   16 ar    
   26   13   27 1     
   27   14   16 ar    
   28   14   28 1     
   29   15   17 2     
   30   16   29 1     
@<TRIPOS>SUBSTRUCTURE
      1 RES1           1
@<TRIPOS>SET
DONOR_HYDROGENS      STATIC     ATOMS    <user>   **** ""
2 22 23
ATOM$RED        STATIC     ATOMS    COLORGROUP SYSTEM
2 22 23
@<TRIPOS>COMMENT
> <Gold.Version>
2022.3.0

> <Gold.Id.Protein>
unknown|3l9n_clean|pdb

> <Gold.Protein.RotatedTorsions>
[ 2826 2819 2817 2814 ] final  159.69 input   59.97 | X-H torsion
[ 5145 5136 5135 5133 ] final -113.18 input   59.99 | X-H torsion
[ 1819 1812 1811 1809 ] final   46.54 input   59.98 | X-H torsion
[ 2506 2497 2496 2494 ] final  -56.40 input   59.98 | X-H torsion
[ 2581 2570 2569 2568 ] final  -40.00 input   60.01 | X-H torsion
[ 3119 3112 3110 3107 ] final   82.61 input   60.01 | X-H torsion

> <Gold.Protein.ActiveResidues>
 THR48   LEU49   GLY50   THR51   GLY52   SER53   PHE54   GLY55   ARG56   VAL57  
 MET58   LEU59   TYR69   ALA70   MET71   LYS72   ILE73   LEU74   GLU91   LEU95  
 VAL104  LYS105  LEU106  MET118  VAL119  MET120  GLU121  TYR122  ALA123  PRO124 
 GLY125  GLY126  GLU127  MET128  PHE129  TYR164  ASP166  LYS168  PRO169  GLU170 
 ASN171  LEU172  MET173  ILE174  ASP175  LYS181  VAL182  THR183  ASP184  PHE185 
 GLY186  PHE187  THR201  PHE327  ASP328  TYR330 

> <Gold.Protein.RotatedAtoms>
   41.1972   10.6956   57.6590 H   0  0  0  0  0  0  0  0  0  0  0  0  # atno 1819 bound_to 1812
   26.2762   21.1725   53.7383 H   0  0  0  0  0  0  0  0  0  0  0  0  # atno 2506 bound_to 2497
   30.4908   27.5074   57.2778 H   0  0  0  0  0  0  0  0  0  0  0  0  # atno 2581 bound_to 2570
   28.8452   27.7017   57.2236 H   0  0  0  0  0  0  0  0  0  0  0  0  # atno 2582 bound_to 2570
   29.4991   26.3786   57.9793 H   0  0  0  0  0  0  0  0  0  0  0  0  # atno 2583 bound_to 2570
   30.8093   18.0217   55.7382 H   0  0  0  0  0  0  0  0  0  0  0  0  # atno 2826 bound_to 2819
   27.1966   28.4647   55.5667 H   0  0  0  0  0  0  0  0  0  0  0  0  # atno 3119 bound_to 3112
   40.4946   22.2998   61.2891 H   0  0  0  0  0  0  0  0  0  0  0  0  # atno 5145 bound_to 5136
   29.5315   18.8044   55.1034 LP  0  0  0  0  0  0  0  0  0  0  0  0  # atno 5479 bound_to 2819
   30.7048   18.2246   54.1269 LP  0  0  0  0  0  0  0  0  0  0  0  0  # atno 5480 bound_to 2819
   38.9165   22.0197   61.5693 LP  0  0  0  0  0  0  0  0  0  0  0  0  # atno 5483 bound_to 5136
   39.8130   20.9200   60.7608 LP  0  0  0  0  0  0  0  0  0  0  0  0  # atno 5484 bound_to 5136
   41.3537   11.0283   56.0735 LP  0  0  0  0  0  0  0  0  0  0  0  0  # atno 5511 bound_to 1812
   41.8589    9.5916   56.6629 LP  0  0  0  0  0  0  0  0  0  0  0  0  # atno 5512 bound_to 1812
   27.1511   21.8970   52.5732 LP  0  0  0  0  0  0  0  0  0  0  0  0  # atno 5533 bound_to 2497
   26.8438   20.2953   52.4908 LP  0  0  0  0  0  0  0  0  0  0  0  0  # atno 5534 bound_to 2497
   27.4769   29.0564   57.0562 LP  0  0  0  0  0  0  0  0  0  0  0  0  # atno 5545 bound_to 3112
   28.7195   28.5323   56.1353 LP  0  0  0  0  0  0  0  0  0  0  0  0  # atno 5546 bound_to 3112

> <Gold.Score>
     Fitness  S(hb_ext) S(vdw_ext)  S(hb_int)    S(int)      intcor
     35.77       1.23      25.15       0.00      -0.04      -0.76

> <Gold.Goldscore.Fitness>
35.7664

> <Gold.Goldscore.Internal.Vdw>
-0.3088

> <Gold.Goldscore.Internal.Torsion>
-0.4951

> <Gold.Goldscore.External.Vdw>
25.1488

> <Gold.Goldscore.Internal.HBond>
0.0000

> <Gold.Goldscore.External.HBond>
1.2258

> <Gold.Goldscore.Internal.Correction>
-0.7650

> <Gold.Goldscore.Hbonds>
donor molecule, donor type, donor heavy atom, donor atom, acceptor molecule, acceptor atom, score
      P1  H  2819  2826       L1     9  0.02
      L1  H     8    22       P1  2620  0.59

> <Gold.Goldscore.Internal.Vdw.Weighted>
-0.3088

> <Gold.Goldscore.Internal.Torsion.Weighted>
-0.4951

> <Gold.Goldscore.External.Vdw.Weighted>
34.5796

> <Gold.Goldscore.Internal.HBond.Weighted>
0.0000

> <Gold.Goldscore.External.HBond.Weighted>
1.2258

> <Gold.Goldscore.Internal.Correction.Weighted>
-0.7650

> <Gold.Rescore>
     Score     S(PLP)   S(hbond)     S(cho)   S(metal)  DE(clash)   DE(tors)     intcor
     33.81     -30.03       1.34       0.00       0.00       0.00       0.11       ----

> <Gold.PLP.Fitness>
33.8133

> <Gold.PLP.PLP>
-30.0332

> <Gold.PLP.part.hbond>
-1.1136

> <Gold.PLP.part.metal>
0.0000

> <Gold.PLP.part.buried>
-2.0675

> <Gold.PLP.part.nonpolar>
-29.0716

> <Gold.PLP.part.repulsive>
0.7749

> <Gold.PLP.ligand.clash>
0.0000

> <Gold.PLP.ligand.torsion>
0.1139

> <Gold.PLP.Chemscore.Hbond>
1.3360

> <Gold.PLP.Chemscore.CHOScore>
0.0000

> <Gold.PLP.Chemscore.Metal>
0.0000

> <Gold.Chemscore.Hbonds>
donor molecule, donor type, donor heavy atom, donor atom, acceptor molecule, acceptor atom, score
      L1  H     8    22       P1  2620  1.00
      P1  H  2819  2826       L1     9  0.57

> <Gold.PLP.Chemscore.Internal.Correction>
   9.000000E+99

