#       Name:                CT1002167954
#       Creating user name   hitesit
#       Creation time:       Sun Apr 16 22:50:18 2023


#       File generated by GOLD software.
#

@<TRIPOS>MOLECULE
CT1002167954|ligand_prepared|mol2|1|dock9
    29    30     1
SMALL
NO_CHARGES


@<TRIPOS>ATOM
      1 C1          31.1853  18.4246  59.0944 C.3            1 RES1               0.0000
      2 C2          32.7070  18.2488  59.2735 C.ar           1 RES1               0.0000
      3 C3          30.6564  18.9582  60.4225 C.2            1 RES1               0.0000
      4 C4          31.0014  19.3817  57.9219 C.2            1 RES1               0.0000
      5 C5          30.4396  17.1115  58.7607 C.3            1 RES1               0.0000
      6 C6          33.4924  19.3008  59.7351 C.ar           1 RES1               0.0000
      7 C7          33.3383  17.0419  58.9842 C.ar           1 RES1               0.0000
      8 N8          30.2934  20.2717  60.4761 N.am           1 RES1               0.0000
      9 O9          30.5961  18.2474  61.4182 O.2            1 RES1               0.0000
     10 N10         30.4464  20.6087  58.1755 N.am           1 RES1               0.0000
     11 O11         31.3474  19.0908  56.7835 O.2            1 RES1               0.0000
     12 C12         28.9335  17.2772  58.6326 C.3            1 RES1               0.0000
     13 C13         34.8589  19.1510  59.9043 C.ar           1 RES1               0.0000
     14 C14         34.7050  16.8943  59.1539 C.ar           1 RES1               0.0000
     15 C15         30.1124  21.1087  59.4046 C.2            1 RES1               0.0000
     16 C16         35.4660  17.9477  59.6143 C.ar           1 RES1               0.0000
     17 O17         29.6686  22.2430  59.5583 O.2            1 RES1               0.0000
     18 H18         30.8324  16.7122  57.8175 H              1 RES1               0.0000
     19 H19         30.6481  16.3770  59.5485 H              1 RES1               0.0000
     20 H20         33.0327  20.2560  59.9661 H              1 RES1               0.0000
     21 H21         32.7597  16.1999  58.6198 H              1 RES1               0.0000
     22 H22         30.1426  20.6683  61.3983 H              1 RES1               0.0000
     23 H23         30.2655  21.2043  57.3738 H              1 RES1               0.0000
     24 H24         28.4594  16.3265  58.3980 H              1 RES1               0.0000
     25 H25         28.5059  17.6491  59.5614 H              1 RES1               0.0000
     26 H26         28.6891  17.9823  57.8407 H              1 RES1               0.0000
     27 H27         35.4536  19.9835  60.2656 H              1 RES1               0.0000
     28 H28         35.1786  15.9457  58.9239 H              1 RES1               0.0000
     29 H29         36.5364  17.8305  59.7473 H              1 RES1               0.0000
@<TRIPOS>BOND
    1    1    2 1     
    2    1    3 1     
    3    1    4 1     
    4    1    5 1     
    5    2    6 ar    
    6    2    7 ar    
    7    3    8 1     
    8    3    9 2     
    9    4   10 1     
   10    4   11 2     
   11    5   12 1     
   12    5   18 1     
   13    5   19 1     
   14    6   13 ar    
   15    6   20 1     
   16    7   14 ar    
   17    7   21 1     
   18    8   15 1     
   19    8   22 1     
   20   10   15 1     
   21   10   23 1     
   22   12   24 1     
   23   12   25 1     
   24   12   26 1     
   25   13   16 ar    
   26   13   27 1     
   27   14   16 ar    
   28   14   28 1     
   29   15   17 2     
   30   16   29 1     
@<TRIPOS>SUBSTRUCTURE
      1 RES1           1
@<TRIPOS>SET
DONOR_HYDROGENS      STATIC     ATOMS    <user>   **** ""
2 22 23
ATOM$RED        STATIC     ATOMS    COLORGROUP SYSTEM
2 22 23
@<TRIPOS>COMMENT
> <Gold.Version>
2022.3.0

> <Gold.Id.Protein>
unknown|3l9n_clean|pdb

> <Gold.Protein.RotatedTorsions>
[ 2826 2819 2817 2814 ] final  142.83 input   59.97 | X-H torsion
[ 5145 5136 5135 5133 ] final  169.93 input   59.99 | X-H torsion
[ 1819 1812 1811 1809 ] final  173.59 input   59.98 | X-H torsion
[ 2506 2497 2496 2494 ] final   38.19 input   59.98 | X-H torsion
[ 2581 2570 2569 2568 ] final  -33.95 input   60.01 | X-H torsion
[ 3119 3112 3110 3107 ] final  139.33 input   60.01 | X-H torsion

> <Gold.Protein.ActiveResidues>
 THR48   LEU49   GLY50   THR51   GLY52   SER53   PHE54   GLY55   ARG56   VAL57  
 MET58   LEU59   TYR69   ALA70   MET71   LYS72   ILE73   LEU74   GLU91   LEU95  
 VAL104  LYS105  LEU106  MET118  VAL119  MET120  GLU121  TYR122  ALA123  PRO124 
 GLY125  GLY126  GLU127  MET128  PHE129  TYR164  ASP166  LYS168  PRO169  GLU170 
 ASN171  LEU172  MET173  ILE174  ASP175  LYS181  VAL182  THR183  ASP184  PHE185 
 GLY186  PHE187  THR201  PHE327  ASP328  TYR330 

> <Gold.Protein.RotatedAtoms>
   41.8626    9.6262   56.5526 H   0  0  0  0  0  0  0  0  0  0  0  0  # atno 1819 bound_to 1812
   26.6170   20.2028   52.8238 H   0  0  0  0  0  0  0  0  0  0  0  0  # atno 2506 bound_to 2497
   30.4461   27.5861   57.2330 H   0  0  0  0  0  0  0  0  0  0  0  0  # atno 2581 bound_to 2570
   28.7891   27.6302   57.2677 H   0  0  0  0  0  0  0  0  0  0  0  0  # atno 2582 bound_to 2570
   29.5999   26.3713   57.9798 H   0  0  0  0  0  0  0  0  0  0  0  0  # atno 2583 bound_to 2570
   30.5944   18.1321   55.8685 H   0  0  0  0  0  0  0  0  0  0  0  0  # atno 2826 bound_to 2819
   28.0624   28.3130   55.4341 H   0  0  0  0  0  0  0  0  0  0  0  0  # atno 3119 bound_to 3112
   39.4135   22.4863   61.6780 H   0  0  0  0  0  0  0  0  0  0  0  0  # atno 5145 bound_to 5136
   29.5484   18.8189   54.8280 LP  0  0  0  0  0  0  0  0  0  0  0  0  # atno 5479 bound_to 2819
   30.9042   18.0989   54.2712 LP  0  0  0  0  0  0  0  0  0  0  0  0  # atno 5480 bound_to 2819
   39.1694   21.0311   60.9923 LP  0  0  0  0  0  0  0  0  0  0  0  0  # atno 5483 bound_to 5136
   40.6488   21.7208   60.9461 LP  0  0  0  0  0  0  0  0  0  0  0  0  # atno 5484 bound_to 5136
   41.2349   10.5944   57.7004 LP  0  0  0  0  0  0  0  0  0  0  0  0  # atno 5511 bound_to 1812
   41.3077   11.1023   56.1501 LP  0  0  0  0  0  0  0  0  0  0  0  0  # atno 5512 bound_to 1812
   26.3978   21.5643   53.6875 LP  0  0  0  0  0  0  0  0  0  0  0  0  # atno 5533 bound_to 2497
   27.2539   21.6046   52.2974 LP  0  0  0  0  0  0  0  0  0  0  0  0  # atno 5534 bound_to 2497
   26.8836   28.8539   56.4165 LP  0  0  0  0  0  0  0  0  0  0  0  0  # atno 5545 bound_to 3112
   28.4403   28.8876   56.9086 LP  0  0  0  0  0  0  0  0  0  0  0  0  # atno 5546 bound_to 3112

> <Gold.Score>
     Fitness  S(hb_ext) S(vdw_ext)  S(hb_int)    S(int)      intcor
     35.89       1.12      25.42       0.00      -0.19      -0.76

> <Gold.Goldscore.Fitness>
35.8911

> <Gold.Goldscore.Internal.Vdw>
-0.5801

> <Gold.Goldscore.Internal.Torsion>
-0.3742

> <Gold.Goldscore.External.Vdw>
25.4239

> <Gold.Goldscore.Internal.HBond>
0.0000

> <Gold.Goldscore.External.HBond>
1.1225

> <Gold.Goldscore.Internal.Correction>
-0.7650

> <Gold.Goldscore.Hbonds>
donor molecule, donor type, donor heavy atom, donor atom, acceptor molecule, acceptor atom, score
      P1  H  2819  2826       L1    11  0.15
      L1  H    10    23       P1  2620  0.41

> <Gold.Goldscore.Internal.Vdw.Weighted>
-0.5801

> <Gold.Goldscore.Internal.Torsion.Weighted>
-0.3742

> <Gold.Goldscore.External.Vdw.Weighted>
34.9578

> <Gold.Goldscore.Internal.HBond.Weighted>
0.0000

> <Gold.Goldscore.External.HBond.Weighted>
1.1225

> <Gold.Goldscore.Internal.Correction.Weighted>
-0.7650

> <Gold.Rescore>
     Score     S(PLP)   S(hbond)     S(cho)   S(metal)  DE(clash)   DE(tors)     intcor
     39.09     -36.33       1.61       0.00       0.00       0.00       1.03       ----

> <Gold.PLP.Fitness>
39.0879

> <Gold.PLP.PLP>
-36.3254

> <Gold.PLP.part.hbond>
-1.3674

> <Gold.PLP.part.metal>
0.0000

> <Gold.PLP.part.buried>
0.1049

> <Gold.PLP.part.nonpolar>
-35.0505

> <Gold.PLP.part.repulsive>
0.7040

> <Gold.PLP.ligand.clash>
0.0000

> <Gold.PLP.ligand.torsion>
1.0308

> <Gold.PLP.Chemscore.Hbond>
1.6080

> <Gold.PLP.Chemscore.CHOScore>
0.0000

> <Gold.PLP.Chemscore.Metal>
0.0000

> <Gold.Chemscore.Hbonds>
donor molecule, donor type, donor heavy atom, donor atom, acceptor molecule, acceptor atom, score
      L1  H    10    23       P1  2620  1.00
      P1  H  2819  2826       L1    11  0.69

> <Gold.PLP.Chemscore.Internal.Correction>
   9.000000E+99

