#       Name:                CT1002167954
#       Creating user name   hitesit
#       Creation time:       Sun Apr 16 22:50:12 2023


#       File generated by GOLD software.
#

@<TRIPOS>MOLECULE
CT1002167954|ligand_prepared|mol2|1|dock4
    29    30     1
SMALL
NO_CHARGES


@<TRIPOS>ATOM
      1 C1          33.0892  19.0722  58.7082 C.3            1 RES1               0.0000
      2 C2          34.0435  17.8626  58.6377 C.ar           1 RES1               0.0000
      3 C3          32.3450  19.1090  57.3767 C.2            1 RES1               0.0000
      4 C4          32.1904  18.8366  59.9170 C.2            1 RES1               0.0000
      5 C5          33.8101  20.4261  58.9055 C.3            1 RES1               0.0000
      6 C6          33.5631  16.5994  58.3057 C.ar           1 RES1               0.0000
      7 C7          35.4047  17.9946  58.8990 C.ar           1 RES1               0.0000
      8 N8          31.0384  18.7181  57.3722 N.am           1 RES1               0.0000
      9 O9          32.9070  19.4381  56.3394 O.2            1 RES1               0.0000
     10 N10         30.8537  18.6340  59.6935 N.am           1 RES1               0.0000
     11 O11         32.6303  18.8080  61.0598 O.2            1 RES1               0.0000
     12 C12         32.8764  21.6261  58.8880 C.3            1 RES1               0.0000
     13 C13         34.4130  15.5082  58.2344 C.ar           1 RES1               0.0000
     14 C14         36.2530  16.9019  58.8274 C.ar           1 RES1               0.0000
     15 C15         30.2420  18.5336  58.4737 C.2            1 RES1               0.0000
     16 C16         35.7585  15.6587  58.4948 C.ar           1 RES1               0.0000
     17 O17         29.0437  18.2957  58.3528 O.2            1 RES1               0.0000
     18 H18         34.3419  20.4064  59.8648 H              1 RES1               0.0000
     19 H19         34.5564  20.5479  58.1108 H              1 RES1               0.0000
     20 H20         32.5069  16.4612  58.0999 H              1 RES1               0.0000
     21 H21         35.8158  18.9629  59.1636 H              1 RES1               0.0000
     22 H22         30.6142  18.5472  56.4660 H              1 RES1               0.0000
     23 H23         30.2596  18.5505  60.5123 H              1 RES1               0.0000
     24 H24         33.4330  22.5500  59.0305 H              1 RES1               0.0000
     25 H25         32.3495  21.6911  57.9383 H              1 RES1               0.0000
     26 H26         32.1362  21.5505  59.6819 H              1 RES1               0.0000
     27 H27         34.0187  14.5316  57.9736 H              1 RES1               0.0000
     28 H28         37.3111  17.0249  59.0337 H              1 RES1               0.0000
     29 H29         36.4242  14.8038  58.4386 H              1 RES1               0.0000
@<TRIPOS>BOND
    1    1    2 1     
    2    1    3 1     
    3    1    4 1     
    4    1    5 1     
    5    2    6 ar    
    6    2    7 ar    
    7    3    8 1     
    8    3    9 2     
    9    4   10 1     
   10    4   11 2     
   11    5   12 1     
   12    5   18 1     
   13    5   19 1     
   14    6   13 ar    
   15    6   20 1     
   16    7   14 ar    
   17    7   21 1     
   18    8   15 1     
   19    8   22 1     
   20   10   15 1     
   21   10   23 1     
   22   12   24 1     
   23   12   25 1     
   24   12   26 1     
   25   13   16 ar    
   26   13   27 1     
   27   14   16 ar    
   28   14   28 1     
   29   15   17 2     
   30   16   29 1     
@<TRIPOS>SUBSTRUCTURE
      1 RES1           1
@<TRIPOS>SET
DONOR_HYDROGENS      STATIC     ATOMS    <user>   **** ""
2 22 23
ATOM$RED        STATIC     ATOMS    COLORGROUP SYSTEM
2 22 23
@<TRIPOS>COMMENT
> <Gold.Version>
2022.3.0

> <Gold.Id.Protein>
unknown|3l9n_clean|pdb

> <Gold.Protein.RotatedTorsions>
[ 2826 2819 2817 2814 ] final  -40.46 input   59.97 | X-H torsion
[ 5145 5136 5135 5133 ] final   11.83 input   59.99 | X-H torsion
[ 1819 1812 1811 1809 ] final   77.15 input   59.98 | X-H torsion
[ 2506 2497 2496 2494 ] final   41.82 input   59.98 | X-H torsion
[ 2581 2570 2569 2568 ] final  -55.43 input   60.01 | X-H torsion
[ 3119 3112 3110 3107 ] final   97.59 input   60.01 | X-H torsion

> <Gold.Protein.ActiveResidues>
 THR48   LEU49   GLY50   THR51   GLY52   SER53   PHE54   GLY55   ARG56   VAL57  
 MET58   LEU59   TYR69   ALA70   MET71   LYS72   ILE73   LEU74   GLU91   LEU95  
 VAL104  LYS105  LEU106  MET118  VAL119  MET120  GLU121  TYR122  ALA123  PRO124 
 GLY125  GLY126  GLU127  MET128  PHE129  TYR164  ASP166  LYS168  PRO169  GLU170 
 ASN171  LEU172  MET173  ILE174  ASP175  LYS181  VAL182  THR183  ASP184  PHE185 
 GLY186  PHE187  THR201  PHE327  ASP328  TYR330 

> <Gold.Protein.RotatedAtoms>
   41.3825   10.2403   57.7114 H   0  0  0  0  0  0  0  0  0  0  0  0  # atno 1819 bound_to 1812
   26.6484   20.2061   52.7736 H   0  0  0  0  0  0  0  0  0  0  0  0  # atno 2506 bound_to 2497
   30.5596   27.2929   57.4016 H   0  0  0  0  0  0  0  0  0  0  0  0  # atno 2581 bound_to 2570
   29.0252   27.8568   57.1255 H   0  0  0  0  0  0  0  0  0  0  0  0  # atno 2582 bound_to 2570
   29.2504   26.4380   57.9535 H   0  0  0  0  0  0  0  0  0  0  0  0  # atno 2583 bound_to 2570
   30.1484   18.5402   54.0969 H   0  0  0  0  0  0  0  0  0  0  0  0  # atno 2826 bound_to 2819
   27.4010   28.3945   55.4536 H   0  0  0  0  0  0  0  0  0  0  0  0  # atno 3119 bound_to 3112
   39.7336   20.9134   60.7824 H   0  0  0  0  0  0  0  0  0  0  0  0  # atno 5145 bound_to 5136
   31.1400   17.8832   55.2076 LP  0  0  0  0  0  0  0  0  0  0  0  0  # atno 5479 bound_to 2819
   29.7618   18.6237   55.6755 LP  0  0  0  0  0  0  0  0  0  0  0  0  # atno 5480 bound_to 2819
   40.5416   22.2474   61.2460 LP  0  0  0  0  0  0  0  0  0  0  0  0  # atno 5483 bound_to 5136
   38.9542   22.0884   61.5944 LP  0  0  0  0  0  0  0  0  0  0  0  0  # atno 5484 bound_to 5136
   41.1754   11.2715   56.4694 LP  0  0  0  0  0  0  0  0  0  0  0  0  # atno 5511 bound_to 1812
   41.8507    9.8068   56.2142 LP  0  0  0  0  0  0  0  0  0  0  0  0  # atno 5512 bound_to 1812
   26.3753   21.5119   53.7052 LP  0  0  0  0  0  0  0  0  0  0  0  0  # atno 5533 bound_to 2497
   27.2448   21.6537   52.3303 LP  0  0  0  0  0  0  0  0  0  0  0  0  # atno 5534 bound_to 2497
   27.2598   29.0331   56.9433 LP  0  0  0  0  0  0  0  0  0  0  0  0  # atno 5545 bound_to 3112
   28.7306   28.6262   56.3622 LP  0  0  0  0  0  0  0  0  0  0  0  0  # atno 5546 bound_to 3112

> <Gold.Score>
     Fitness  S(hb_ext) S(vdw_ext)  S(hb_int)    S(int)      intcor
     35.90       2.00      24.71       0.00      -0.07      -0.76

> <Gold.Goldscore.Fitness>
35.9039

> <Gold.Goldscore.Internal.Vdw>
-0.4462

> <Gold.Goldscore.Internal.Torsion>
-0.3893

> <Gold.Goldscore.External.Vdw>
24.7086

> <Gold.Goldscore.Internal.HBond>
0.0000

> <Gold.Goldscore.External.HBond>
2.0000

> <Gold.Goldscore.Internal.Correction>
-0.7650

> <Gold.Goldscore.Hbonds>
donor molecule, donor type, donor heavy atom, donor atom, acceptor molecule, acceptor atom, score
      L1  H     8    22       P1  2819  1.00

> <Gold.Goldscore.Internal.Vdw.Weighted>
-0.4462

> <Gold.Goldscore.Internal.Torsion.Weighted>
-0.3893

> <Gold.Goldscore.External.Vdw.Weighted>
33.9744

> <Gold.Goldscore.Internal.HBond.Weighted>
0.0000

> <Gold.Goldscore.External.HBond.Weighted>
2.0000

> <Gold.Goldscore.Internal.Correction.Weighted>
-0.7650

> <Gold.Rescore>
     Score     S(PLP)   S(hbond)     S(cho)   S(metal)  DE(clash)   DE(tors)     intcor
     33.36     -33.78       0.61       0.00       0.00       0.00       1.12       ----

> <Gold.PLP.Fitness>
33.3612

> <Gold.PLP.PLP>
-33.7822

> <Gold.PLP.part.hbond>
-1.7873

> <Gold.PLP.part.metal>
0.0000

> <Gold.PLP.part.buried>
1.3560

> <Gold.PLP.part.nonpolar>
-34.0904

> <Gold.PLP.part.repulsive>
0.4491

> <Gold.PLP.ligand.clash>
0.0000

> <Gold.PLP.ligand.torsion>
1.1231

> <Gold.PLP.Chemscore.Hbond>
0.6084

> <Gold.PLP.Chemscore.CHOScore>
0.0000

> <Gold.PLP.Chemscore.Metal>
0.0000

> <Gold.Chemscore.Hbonds>
donor molecule, donor type, donor heavy atom, donor atom, acceptor molecule, acceptor atom, score
      L1  H     8    22       P1  2819  1.00

> <Gold.PLP.Chemscore.Internal.Correction>
   9.000000E+99

