#       Name:                CT1002167954
#       Creating user name   hitesit
#       Creation time:       Sun Apr 16 22:50:10 2023


#       File generated by GOLD software.
#

@<TRIPOS>MOLECULE
CT1002167954|ligand_prepared|mol2|1|dock1
    29    30     1
SMALL
NO_CHARGES


@<TRIPOS>ATOM
      1 C1          32.4307  18.3161  58.6869 C.3            1 RES1               0.0000
      2 C2          32.8674  16.8992  58.2621 C.ar           1 RES1               0.0000
      3 C3          33.4274  18.7711  59.7490 C.2            1 RES1               0.0000
      4 C4          32.4417  19.1638  57.4197 C.2            1 RES1               0.0000
      5 C5          31.0081  18.3770  59.2902 C.3            1 RES1               0.0000
      6 C6          34.2142  16.5951  58.0879 C.ar           1 RES1               0.0000
      7 C7          31.9368  15.8868  58.0438 C.ar           1 RES1               0.0000
      8 N8          34.3496  19.7092  59.3894 N.am           1 RES1               0.0000
      9 O9          33.4292  18.2854  60.8734 O.2            1 RES1               0.0000
     10 N10         33.3519  20.1849  57.3381 N.am           1 RES1               0.0000
     11 O11         31.6816  18.9462  56.4842 O.2            1 RES1               0.0000
     12 C12         30.6746  19.7102  59.9410 C.3            1 RES1               0.0000
     13 C13         34.6164  15.3242  57.7118 C.ar           1 RES1               0.0000
     14 C14         32.3412  14.6166  57.6675 C.ar           1 RES1               0.0000
     15 C15         34.3269  20.4767  58.2527 C.2            1 RES1               0.0000
     16 C16         33.6804  14.3341  57.5019 C.ar           1 RES1               0.0000
     17 O17         35.1439  21.3771  58.0832 O.2            1 RES1               0.0000
     18 H18         30.2786  18.1800  58.4949 H              1 RES1               0.0000
     19 H19         30.9085  17.5831  60.0407 H              1 RES1               0.0000
     20 H20         34.9650  17.3621  58.2462 H              1 RES1               0.0000
     21 H21         30.8778  16.0864  58.1671 H              1 RES1               0.0000
     22 H22         35.1283  19.8534  60.0244 H              1 RES1               0.0000
     23 H23         33.2974  20.7831  56.5198 H              1 RES1               0.0000
     24 H24         29.6656  19.6991  60.3478 H              1 RES1               0.0000
     25 H25         31.3652  19.9263  60.7534 H              1 RES1               0.0000
     26 H26         30.7391  20.5197  59.2168 H              1 RES1               0.0000
     27 H27         35.6715  15.1074  57.5814 H              1 RES1               0.0000
     28 H28         31.6010  13.8406  57.5028 H              1 RES1               0.0000
     29 H29         33.9957  13.3385  57.2077 H              1 RES1               0.0000
@<TRIPOS>BOND
    1    1    2 1     
    2    1    3 1     
    3    1    4 1     
    4    1    5 1     
    5    2    6 ar    
    6    2    7 ar    
    7    3    8 1     
    8    3    9 2     
    9    4   10 1     
   10    4   11 2     
   11    5   12 1     
   12    5   18 1     
   13    5   19 1     
   14    6   13 ar    
   15    6   20 1     
   16    7   14 ar    
   17    7   21 1     
   18    8   15 1     
   19    8   22 1     
   20   10   15 1     
   21   10   23 1     
   22   12   24 1     
   23   12   25 1     
   24   12   26 1     
   25   13   16 ar    
   26   13   27 1     
   27   14   16 ar    
   28   14   28 1     
   29   15   17 2     
   30   16   29 1     
@<TRIPOS>SUBSTRUCTURE
      1 RES1           1
@<TRIPOS>SET
DONOR_HYDROGENS      STATIC     ATOMS    <user>   **** ""
2 22 23
ATOM$RED        STATIC     ATOMS    COLORGROUP SYSTEM
2 22 23
@<TRIPOS>COMMENT
> <Gold.Version>
2022.3.0

> <Gold.Id.Protein>
unknown|3l9n_clean|pdb

> <Gold.Protein.RotatedTorsions>
[ 2826 2819 2817 2814 ] final  142.55 input   59.97 | X-H torsion
[ 5145 5136 5135 5133 ] final   74.23 input   59.99 | X-H torsion
[ 1819 1812 1811 1809 ] final  100.37 input   59.98 | X-H torsion
[ 2506 2497 2496 2494 ] final   50.52 input   59.98 | X-H torsion
[ 2581 2570 2569 2568 ] final   72.55 input   60.01 | X-H torsion
[ 3119 3112 3110 3107 ] final  -51.31 input   60.01 | X-H torsion

> <Gold.Protein.ActiveResidues>
 THR48   LEU49   GLY50   THR51   GLY52   SER53   PHE54   GLY55   ARG56   VAL57  
 MET58   LEU59   TYR69   ALA70   MET71   LYS72   ILE73   LEU74   GLU91   LEU95  
 VAL104  LYS105  LEU106  MET118  VAL119  MET120  GLU121  TYR122  ALA123  PRO124 
 GLY125  GLY126  GLU127  MET128  PHE129  TYR164  ASP166  LYS168  PRO169  GLU170 
 ASN171  LEU172  MET173  ILE174  ASP175  LYS181  VAL182  THR183  ASP184  PHE185 
 GLY186  PHE187  THR201  PHE327  ASP328  TYR330 

> <Gold.Protein.RotatedAtoms>
   41.5421    9.9252   57.5798 H   0  0  0  0  0  0  0  0  0  0  0  0  # atno 1819 bound_to 1812
   26.7250   20.2289   52.6562 H   0  0  0  0  0  0  0  0  0  0  0  0  # atno 2506 bound_to 2497
   28.9258   27.7819   57.1740 H   0  0  0  0  0  0  0  0  0  0  0  0  # atno 2581 bound_to 2570
   29.3769   26.3997   57.9708 H   0  0  0  0  0  0  0  0  0  0  0  0  # atno 2582 bound_to 2570
   30.5324   27.4053   57.3362 H   0  0  0  0  0  0  0  0  0  0  0  0  # atno 2583 bound_to 2570
   30.5907   18.1341   55.8700 H   0  0  0  0  0  0  0  0  0  0  0  0  # atno 2826 bound_to 2819
   27.6993   29.0541   57.1050 H   0  0  0  0  0  0  0  0  0  0  0  0  # atno 3119 bound_to 3112
   38.9325   21.2800   61.1880 H   0  0  0  0  0  0  0  0  0  0  0  0  # atno 5145 bound_to 5136
   29.5493   18.8188   54.8235 LP  0  0  0  0  0  0  0  0  0  0  0  0  # atno 5479 bound_to 2819
   30.9071   18.0970   54.2741 LP  0  0  0  0  0  0  0  0  0  0  0  0  # atno 5480 bound_to 2819
   40.5112   21.3759   60.8060 LP  0  0  0  0  0  0  0  0  0  0  0  0  # atno 5483 bound_to 5136
   39.7913   22.5908   61.6259 LP  0  0  0  0  0  0  0  0  0  0  0  0  # atno 5484 bound_to 5136
   41.0929   11.3027   56.8386 LP  0  0  0  0  0  0  0  0  0  0  0  0  # atno 5511 bound_to 1812
   41.7724   10.0930   55.9775 LP  0  0  0  0  0  0  0  0  0  0  0  0  # atno 5512 bound_to 1812
   26.3277   21.3804   53.7351 LP  0  0  0  0  0  0  0  0  0  0  0  0  # atno 5533 bound_to 2497
   27.2152   21.7622   52.4186 LP  0  0  0  0  0  0  0  0  0  0  0  0  # atno 5534 bound_to 2497
   28.6528   28.4540   55.9311 LP  0  0  0  0  0  0  0  0  0  0  0  0  # atno 5545 bound_to 3112
   27.0371   28.5406   55.7103 LP  0  0  0  0  0  0  0  0  0  0  0  0  # atno 5546 bound_to 3112

> <Gold.Score>
     Fitness  S(hb_ext) S(vdw_ext)  S(hb_int)    S(int)      intcor
     35.36       2.37      24.12       0.00      -0.18      -0.76

> <Gold.Goldscore.Fitness>
35.3642

> <Gold.Goldscore.Internal.Vdw>
-0.3930

> <Gold.Goldscore.Internal.Torsion>
-0.5507

> <Gold.Goldscore.External.Vdw>
24.1246

> <Gold.Goldscore.Internal.HBond>
0.0000

> <Gold.Goldscore.External.HBond>
2.3716

> <Gold.Goldscore.Internal.Correction>
-0.7650

> <Gold.Goldscore.Hbonds>
donor molecule, donor type, donor heavy atom, donor atom, acceptor molecule, acceptor atom, score
      P1  H  2819  2826       L1    11  0.19
      L1  H    10    23       P1  2601  1.00

> <Gold.Goldscore.Internal.Vdw.Weighted>
-0.3930

> <Gold.Goldscore.Internal.Torsion.Weighted>
-0.5507

> <Gold.Goldscore.External.Vdw.Weighted>
33.1713

> <Gold.Goldscore.Internal.HBond.Weighted>
0.0000

> <Gold.Goldscore.External.HBond.Weighted>
2.3716

> <Gold.Goldscore.Internal.Correction.Weighted>
-0.7650

> <Gold.Rescore>
     Score     S(PLP)   S(hbond)     S(cho)   S(metal)  DE(clash)   DE(tors)     intcor
     37.36     -34.21       1.49       0.00       0.00       0.00       0.65       ----

> <Gold.PLP.Fitness>
37.3628

> <Gold.PLP.PLP>
-34.2067

> <Gold.PLP.part.hbond>
-1.7373

> <Gold.PLP.part.metal>
0.0000

> <Gold.PLP.part.buried>
-1.0688

> <Gold.PLP.part.nonpolar>
-32.9529

> <Gold.PLP.part.repulsive>
0.4366

> <Gold.PLP.ligand.clash>
0.0000

> <Gold.PLP.ligand.torsion>
0.6540

> <Gold.PLP.Chemscore.Hbond>
1.4880

> <Gold.PLP.Chemscore.CHOScore>
0.0000

> <Gold.PLP.Chemscore.Metal>
0.0000

> <Gold.Chemscore.Hbonds>
donor molecule, donor type, donor heavy atom, donor atom, acceptor molecule, acceptor atom, score
      L1  H    10    23       P1  2601  1.00
      P1  H  2819  2826       L1    11  0.51

> <Gold.PLP.Chemscore.Internal.Correction>
   9.000000E+99

