#       Name:                CT1002167954
#       Creating user name   hitesit
#       Creation time:       Sun Apr 16 22:50:10 2023


#       File generated by GOLD software.
#

@<TRIPOS>MOLECULE
CT1002167954|ligand_prepared|mol2|1|dock2
    29    30     1
SMALL
NO_CHARGES


@<TRIPOS>ATOM
      1 C1          33.7762  17.8737  58.8583 C.3            1 RES1               0.0000
      2 C2          32.2781  17.5146  58.9329 C.ar           1 RES1               0.0000
      3 C3          33.9371  18.7916  57.6501 C.2            1 RES1               0.0000
      4 C4          34.1242  18.5306  60.1895 C.2            1 RES1               0.0000
      5 C5          34.7034  16.6501  58.6725 C.3            1 RES1               0.0000
      6 C6          31.7716  16.4351  58.2154 C.ar           1 RES1               0.0000
      7 C7          31.3924  18.2506  59.7155 C.ar           1 RES1               0.0000
      8 N8          34.1476  20.1179  57.8879 N.am           1 RES1               0.0000
      9 O9          33.8414  18.3648  56.5060 O.2            1 RES1               0.0000
     10 N10         34.4841  19.8527  60.1783 N.am           1 RES1               0.0000
     11 O11         34.0738  17.9197  61.2499 O.2            1 RES1               0.0000
     12 C12         36.1786  16.9634  58.8675 C.3            1 RES1               0.0000
     13 C13         30.4289  16.1015  58.2802 C.ar           1 RES1               0.0000
     14 C14         30.0499  17.9154  59.7787 C.ar           1 RES1               0.0000
     15 C15         34.4819  20.6843  59.0917 C.2            1 RES1               0.0000
     16 C16         29.5673  16.8411  59.0621 C.ar           1 RES1               0.0000
     17 O17         34.7657  21.8760  59.1708 O.2            1 RES1               0.0000
     18 H18         34.4099  15.8726  59.3886 H              1 RES1               0.0000
     19 H19         34.5586  16.2474  57.6624 H              1 RES1               0.0000
     20 H20         32.4340  15.8430  57.5927 H              1 RES1               0.0000
     21 H21         31.7496  19.1006  60.2870 H              1 RES1               0.0000
     22 H22         34.0470  20.7468  57.0975 H              1 RES1               0.0000
     23 H23         34.7815  20.2542  61.0619 H              1 RES1               0.0000
     24 H24         36.7845  16.0709  58.7259 H              1 RES1               0.0000
     25 H25         36.5108  17.7152  58.1546 H              1 RES1               0.0000
     26 H26         36.3630  17.3426  59.8706 H              1 RES1               0.0000
     27 H27         30.0538  15.2559  57.7132 H              1 RES1               0.0000
     28 H28         29.3754  18.5006  60.3949 H              1 RES1               0.0000
     29 H29         28.5156  16.5793  59.1130 H              1 RES1               0.0000
@<TRIPOS>BOND
    1    1    2 1     
    2    1    3 1     
    3    1    4 1     
    4    1    5 1     
    5    2    6 ar    
    6    2    7 ar    
    7    3    8 1     
    8    3    9 2     
    9    4   10 1     
   10    4   11 2     
   11    5   12 1     
   12    5   18 1     
   13    5   19 1     
   14    6   13 ar    
   15    6   20 1     
   16    7   14 ar    
   17    7   21 1     
   18    8   15 1     
   19    8   22 1     
   20   10   15 1     
   21   10   23 1     
   22   12   24 1     
   23   12   25 1     
   24   12   26 1     
   25   13   16 ar    
   26   13   27 1     
   27   14   16 ar    
   28   14   28 1     
   29   15   17 2     
   30   16   29 1     
@<TRIPOS>SUBSTRUCTURE
      1 RES1           1
@<TRIPOS>SET
DONOR_HYDROGENS      STATIC     ATOMS    <user>   **** ""
2 22 23
ATOM$RED        STATIC     ATOMS    COLORGROUP SYSTEM
2 22 23
@<TRIPOS>COMMENT
> <Gold.Version>
2022.3.0

> <Gold.Id.Protein>
unknown|3l9n_clean|pdb

> <Gold.Protein.RotatedTorsions>
[ 2826 2819 2817 2814 ] final  114.23 input   59.97 | X-H torsion
[ 5145 5136 5135 5133 ] final   56.33 input   59.99 | X-H torsion
[ 1819 1812 1811 1809 ] final   64.55 input   59.98 | X-H torsion
[ 2506 2497 2496 2494 ] final  124.07 input   59.98 | X-H torsion
[ 2581 2570 2569 2568 ] final -130.55 input   60.01 | X-H torsion
[ 3119 3112 3110 3107 ] final  -77.30 input   60.01 | X-H torsion

> <Gold.Protein.ActiveResidues>
 THR48   LEU49   GLY50   THR51   GLY52   SER53   PHE54   GLY55   ARG56   VAL57  
 MET58   LEU59   TYR69   ALA70   MET71   LYS72   ILE73   LEU74   GLU91   LEU95  
 VAL104  LYS105  LEU106  MET118  VAL119  MET120  GLU121  TYR122  ALA123  PRO124 
 GLY125  GLY126  GLU127  MET128  PHE129  TYR164  ASP166  LYS168  PRO169  GLU170 
 ASN171  LEU172  MET173  ILE174  ASP175  LYS181  VAL182  THR183  ASP184  PHE185 
 GLY186  PHE187  THR201  PHE327  ASP328  TYR330 

> <Gold.Protein.RotatedAtoms>
   41.3000   10.4283   57.7214 H   0  0  0  0  0  0  0  0  0  0  0  0  # atno 1819 bound_to 1812
   27.2341   21.0791   52.1323 H   0  0  0  0  0  0  0  0  0  0  0  0  # atno 2506 bound_to 2497
   29.9812   26.4291   57.9318 H   0  0  0  0  0  0  0  0  0  0  0  0  # atno 2581 bound_to 2570
   30.1918   27.8423   57.0909 H   0  0  0  0  0  0  0  0  0  0  0  0  # atno 2582 bound_to 2570
   28.6628   27.3162   57.4579 H   0  0  0  0  0  0  0  0  0  0  0  0  # atno 2583 bound_to 2570
   30.1923   18.3561   55.9143 H   0  0  0  0  0  0  0  0  0  0  0  0  # atno 2826 bound_to 2819
   28.1148   28.9950   57.0740 H   0  0  0  0  0  0  0  0  0  0  0  0  # atno 3119 bound_to 3112
   39.0986   21.0886   61.0446 H   0  0  0  0  0  0  0  0  0  0  0  0  # atno 5145 bound_to 5136
   29.7311   18.7524   54.4047 LP  0  0  0  0  0  0  0  0  0  0  0  0  # atno 5479 bound_to 2819
   31.1264   17.9398   54.6484 LP  0  0  0  0  0  0  0  0  0  0  0  0  # atno 5480 bound_to 2819
   40.6276   21.6268   60.9035 LP  0  0  0  0  0  0  0  0  0  0  0  0  # atno 5483 bound_to 5136
   39.5077   22.5327   61.6728 LP  0  0  0  0  0  0  0  0  0  0  0  0  # atno 5484 bound_to 5136
   41.2413   11.1970   56.2880 LP  0  0  0  0  0  0  0  0  0  0  0  0  # atno 5511 bound_to 1812
   41.8678    9.6921   56.3855 LP  0  0  0  0  0  0  0  0  0  0  0  0  # atno 5512 bound_to 1812
   26.3649   20.3420   53.2938 LP  0  0  0  0  0  0  0  0  0  0  0  0  # atno 5533 bound_to 2497
   26.6654   21.9444   53.3875 LP  0  0  0  0  0  0  0  0  0  0  0  0  # atno 5534 bound_to 2497
   28.3988   28.3470   55.6089 LP  0  0  0  0  0  0  0  0  0  0  0  0  # atno 5545 bound_to 3112
   26.8724   28.7072   56.0638 LP  0  0  0  0  0  0  0  0  0  0  0  0  # atno 5546 bound_to 3112

> <Gold.Score>
     Fitness  S(hb_ext) S(vdw_ext)  S(hb_int)    S(int)      intcor
     36.76       1.37      26.26       0.00      -0.72      -0.76

> <Gold.Goldscore.Fitness>
36.7622

> <Gold.Goldscore.Internal.Vdw>
-0.9267

> <Gold.Goldscore.Internal.Torsion>
-0.5584

> <Gold.Goldscore.External.Vdw>
26.2625

> <Gold.Goldscore.Internal.HBond>
0.0000

> <Gold.Goldscore.External.HBond>
1.3714

> <Gold.Goldscore.Internal.Correction>
-0.7650

> <Gold.Goldscore.Hbonds>
donor molecule, donor type, donor heavy atom, donor atom, acceptor molecule, acceptor atom, score
      L1  H     8    22       P1  2601  0.69

> <Gold.Goldscore.Internal.Vdw.Weighted>
-0.9267

> <Gold.Goldscore.Internal.Torsion.Weighted>
-0.5584

> <Gold.Goldscore.External.Vdw.Weighted>
36.1110

> <Gold.Goldscore.Internal.HBond.Weighted>
0.0000

> <Gold.Goldscore.External.HBond.Weighted>
1.3714

> <Gold.Goldscore.Internal.Correction.Weighted>
-0.7650

> <Gold.Rescore>
     Score     S(PLP)   S(hbond)     S(cho)   S(metal)  DE(clash)   DE(tors)     intcor
     34.36     -33.13       0.99       0.00       0.00       0.00       0.87       ----

> <Gold.PLP.Fitness>
34.3634

> <Gold.PLP.PLP>
-33.1301

> <Gold.PLP.part.hbond>
-1.7661

> <Gold.PLP.part.metal>
0.0000

> <Gold.PLP.part.buried>
0.8619

> <Gold.PLP.part.nonpolar>
-33.1603

> <Gold.PLP.part.repulsive>
0.3907

> <Gold.PLP.ligand.clash>
0.0000

> <Gold.PLP.ligand.torsion>
0.8702

> <Gold.PLP.Chemscore.Hbond>
0.9913

> <Gold.PLP.Chemscore.CHOScore>
0.0000

> <Gold.PLP.Chemscore.Metal>
0.0000

> <Gold.Chemscore.Hbonds>
donor molecule, donor type, donor heavy atom, donor atom, acceptor molecule, acceptor atom, score
      L1  H     8    22       P1  2601  0.62

> <Gold.PLP.Chemscore.Internal.Correction>
   9.000000E+99

