#       Name:                CT1002167954
#       Creating user name   hitesit
#       Creation time:       Sun Apr 16 22:50:14 2023


#       File generated by GOLD software.
#

@<TRIPOS>MOLECULE
CT1002167954|ligand_prepared|mol2|1|dock6
    29    30     1
SMALL
NO_CHARGES


@<TRIPOS>ATOM
      1 C1          33.0627  18.0008  58.4375 C.3            1 RES1               0.0000
      2 C2          31.7299  17.2250  58.4178 C.ar           1 RES1               0.0000
      3 C3          33.3146  18.3827  59.8932 C.2            1 RES1               0.0000
      4 C4          34.1112  17.0625  57.8502 C.2            1 RES1               0.0000
      5 C5          33.0468  19.2920  57.5866 C.3            1 RES1               0.0000
      6 C6          30.5243  17.8816  58.6464 C.ar           1 RES1               0.0000
      7 C7          31.6896  15.8554  58.1702 C.ar           1 RES1               0.0000
      8 N8          34.2831  17.6990  60.5673 N.am           1 RES1               0.0000
      9 O9          32.6467  19.2436  60.4527 O.2            1 RES1               0.0000
     10 N10         35.1150  16.6250  58.6740 N.am           1 RES1               0.0000
     11 O11         34.0677  16.6848  56.6858 O.2            1 RES1               0.0000
     12 C12         34.3988  19.9816  57.4934 C.3            1 RES1               0.0000
     13 C13         29.3219  17.1946  58.6254 C.ar           1 RES1               0.0000
     14 C14         30.4860  15.1703  58.1498 C.ar           1 RES1               0.0000
     15 C15         35.2311  16.8763  60.0140 C.2            1 RES1               0.0000
     16 C16         29.3018  15.8388  58.3766 C.ar           1 RES1               0.0000
     17 O17         36.1325  16.4023  60.6997 O.2            1 RES1               0.0000
     18 H18         32.7067  19.0432  56.5738 H              1 RES1               0.0000
     19 H19         32.3226  19.9922  58.0209 H              1 RES1               0.0000
     20 H20         30.5206  18.9480  58.8463 H              1 RES1               0.0000
     21 H21         32.6090  15.3087  57.9901 H              1 RES1               0.0000
     22 H22         34.3044  17.8095  61.5761 H              1 RES1               0.0000
     23 H23         35.8431  16.0598  58.2490 H              1 RES1               0.0000
     24 H24         34.3317  20.8814  56.8856 H              1 RES1               0.0000
     25 H25         34.7558  20.2657  58.4811 H              1 RES1               0.0000
     26 H26         35.1377  19.3223  57.0426 H              1 RES1               0.0000
     27 H27         28.3927  17.7251  58.8059 H              1 RES1               0.0000
     28 H28         30.4751  14.1031  57.9542 H              1 RES1               0.0000
     29 H29         28.3597  15.3009  58.3598 H              1 RES1               0.0000
@<TRIPOS>BOND
    1    1    2 1     
    2    1    3 1     
    3    1    4 1     
    4    1    5 1     
    5    2    6 ar    
    6    2    7 ar    
    7    3    8 1     
    8    3    9 2     
    9    4   10 1     
   10    4   11 2     
   11    5   12 1     
   12    5   18 1     
   13    5   19 1     
   14    6   13 ar    
   15    6   20 1     
   16    7   14 ar    
   17    7   21 1     
   18    8   15 1     
   19    8   22 1     
   20   10   15 1     
   21   10   23 1     
   22   12   24 1     
   23   12   25 1     
   24   12   26 1     
   25   13   16 ar    
   26   13   27 1     
   27   14   16 ar    
   28   14   28 1     
   29   15   17 2     
   30   16   29 1     
@<TRIPOS>SUBSTRUCTURE
      1 RES1           1
@<TRIPOS>SET
DONOR_HYDROGENS      STATIC     ATOMS    <user>   **** ""
2 22 23
ATOM$RED        STATIC     ATOMS    COLORGROUP SYSTEM
2 22 23
@<TRIPOS>COMMENT
> <Gold.Version>
2022.3.0

> <Gold.Id.Protein>
unknown|3l9n_clean|pdb

> <Gold.Protein.RotatedTorsions>
[ 2826 2819 2817 2814 ] final -156.87 input   59.97 | X-H torsion
[ 5145 5136 5135 5133 ] final  -51.56 input   59.99 | X-H torsion
[ 1819 1812 1811 1809 ] final -157.85 input   59.98 | X-H torsion
[ 2506 2497 2496 2494 ] final  166.60 input   59.98 | X-H torsion
[ 2581 2570 2569 2568 ] final   95.74 input   60.01 | X-H torsion
[ 3119 3112 3110 3107 ] final   87.73 input   60.01 | X-H torsion

> <Gold.Protein.ActiveResidues>
 THR48   LEU49   GLY50   THR51   GLY52   SER53   PHE54   GLY55   ARG56   VAL57  
 MET58   LEU59   TYR69   ALA70   MET71   LYS72   ILE73   LEU74   GLU91   LEU95  
 VAL104  LYS105  LEU106  MET118  VAL119  MET120  GLU121  TYR122  ALA123  PRO124 
 GLY125  GLY126  GLU127  MET128  PHE129  TYR164  ASP166  LYS168  PRO169  GLU170 
 ASN171  LEU172  MET173  ILE174  ASP175  LYS181  VAL182  THR183  ASP184  PHE185 
 GLY186  PHE187  THR201  PHE327  ASP328  TYR330 

> <Gold.Protein.RotatedAtoms>
   41.8346    9.8644   56.1576 H   0  0  0  0  0  0  0  0  0  0  0  0  # atno 1819 bound_to 1812
   27.2243   21.7113   52.3798 H   0  0  0  0  0  0  0  0  0  0  0  0  # atno 2506 bound_to 2497
   28.7186   27.5059   57.3442 H   0  0  0  0  0  0  0  0  0  0  0  0  # atno 2581 bound_to 2570
   29.7611   26.3784   57.9691 H   0  0  0  0  0  0  0  0  0  0  0  0  # atno 2582 bound_to 2570
   30.3556   27.7026   57.1677 H   0  0  0  0  0  0  0  0  0  0  0  0  # atno 2583 bound_to 2570
   31.1458   17.8825   55.1486 H   0  0  0  0  0  0  0  0  0  0  0  0  # atno 2826 bound_to 2819
   27.2625   28.4388   55.5224 H   0  0  0  0  0  0  0  0  0  0  0  0  # atno 3119 bound_to 3112
   40.5527   21.4551   60.8390 H   0  0  0  0  0  0  0  0  0  0  0  0  # atno 5145 bound_to 5136
   29.7988   18.5993   55.7145 LP  0  0  0  0  0  0  0  0  0  0  0  0  # atno 5479 bound_to 2819
   30.0986   18.5698   54.1096 LP  0  0  0  0  0  0  0  0  0  0  0  0  # atno 5480 bound_to 2819
   39.6988   22.5808   61.6458 LP  0  0  0  0  0  0  0  0  0  0  0  0  # atno 5483 bound_to 5136
   38.9722   21.2096   61.1375 LP  0  0  0  0  0  0  0  0  0  0  0  0  # atno 5484 bound_to 5136
   41.4179   10.1667   57.7016 LP  0  0  0  0  0  0  0  0  0  0  0  0  # atno 5511 bound_to 1812
   41.1529   11.2902   56.5465 LP  0  0  0  0  0  0  0  0  0  0  0  0  # atno 5512 bound_to 1812
   26.6921   20.2091   52.7082 LP  0  0  0  0  0  0  0  0  0  0  0  0  # atno 5533 bound_to 2497
   26.3480   21.4406   53.7239 LP  0  0  0  0  0  0  0  0  0  0  0  0  # atno 5534 bound_to 2497
   27.3996   29.0512   57.0235 LP  0  0  0  0  0  0  0  0  0  0  0  0  # atno 5545 bound_to 3112
   28.7305   28.5635   56.2127 LP  0  0  0  0  0  0  0  0  0  0  0  0  # atno 5546 bound_to 3112

> <Gold.Score>
     Fitness  S(hb_ext) S(vdw_ext)  S(hb_int)    S(int)      intcor
     35.29       0.00      26.90       0.00      -1.69      -0.76

> <Gold.Goldscore.Fitness>
35.2934

> <Gold.Goldscore.Internal.Vdw>
-2.0388

> <Gold.Goldscore.Internal.Torsion>
-0.4179

> <Gold.Goldscore.External.Vdw>
26.8983

> <Gold.Goldscore.Internal.HBond>
0.0000

> <Gold.Goldscore.External.HBond>
0.0000

> <Gold.Goldscore.Internal.Correction>
-0.7650

> <Gold.Goldscore.Internal.Vdw.Weighted>
-2.0388

> <Gold.Goldscore.Internal.Torsion.Weighted>
-0.4179

> <Gold.Goldscore.External.Vdw.Weighted>
36.9852

> <Gold.Goldscore.Internal.HBond.Weighted>
0.0000

> <Gold.Goldscore.External.HBond.Weighted>
0.0000

> <Gold.Goldscore.Internal.Correction.Weighted>
-0.7650

> <Gold.Rescore>
     Score     S(PLP)   S(hbond)     S(cho)   S(metal)  DE(clash)   DE(tors)     intcor
     25.36     -26.93       0.00       0.00       0.00       1.12       0.22       ----

> <Gold.PLP.Fitness>
25.3633

> <Gold.PLP.PLP>
-26.9290

> <Gold.PLP.part.hbond>
-0.7920

> <Gold.PLP.part.metal>
0.0000

> <Gold.PLP.part.buried>
8.0035

> <Gold.PLP.part.nonpolar>
-34.9025

> <Gold.PLP.part.repulsive>
0.1788

> <Gold.PLP.ligand.clash>
1.1165

> <Gold.PLP.ligand.torsion>
0.2246

> <Gold.PLP.Chemscore.Hbond>
0.0000

> <Gold.PLP.Chemscore.CHOScore>
0.0000

> <Gold.PLP.Chemscore.Metal>
0.0000

> <Gold.PLP.Chemscore.Internal.Correction>
   9.000000E+99

