#       Name:                CT1002167954
#       Creating user name   hitesit
#       Creation time:       Sun Apr 16 22:50:11 2023


#       File generated by GOLD software.
#

@<TRIPOS>MOLECULE
CT1002167954|ligand_prepared|mol2|1|dock3
    29    30     1
SMALL
NO_CHARGES


@<TRIPOS>ATOM
      1 C1          33.4165  18.3602  58.6238 C.3            1 RES1               0.0000
      2 C2          32.0096  18.5005  59.2401 C.ar           1 RES1               0.0000
      3 C3          33.3477  19.0127  57.2461 C.2            1 RES1               0.0000
      4 C4          34.3759  19.0464  59.5899 C.2            1 RES1               0.0000
      5 C5          33.8795  16.8949  58.4507 C.3            1 RES1               0.0000
      6 C6          31.0923  17.4573  59.1570 C.ar           1 RES1               0.0000
      7 C7          31.6163  19.6639  59.8961 C.ar           1 RES1               0.0000
      8 N8          33.9506  20.2260  57.0908 N.am           1 RES1               0.0000
      9 O9          32.7398  18.4889  56.3207 O.2            1 RES1               0.0000
     10 N10         35.0214  20.1761  59.1598 N.am           1 RES1               0.0000
     11 O11         34.5660  18.6286  60.7255 O.2            1 RES1               0.0000
     12 C12         35.3684  16.7506  58.1776 C.3            1 RES1               0.0000
     13 C13         29.8286  17.5717  59.7121 C.ar           1 RES1               0.0000
     14 C14         30.3519  19.7764  60.4503 C.ar           1 RES1               0.0000
     15 C15         34.8290  20.8144  57.9649 C.2            1 RES1               0.0000
     16 C16         29.4576  18.7310  60.3594 C.ar           1 RES1               0.0000
     17 O17         35.4068  21.8572  57.6720 O.2            1 RES1               0.0000
     18 H18         33.6319  16.3364  59.3619 H              1 RES1               0.0000
     19 H19         33.3229  16.4445  57.6197 H              1 RES1               0.0000
     20 H20         31.3655  16.5382  58.6493 H              1 RES1               0.0000
     21 H21         32.3028  20.4996  59.9788 H              1 RES1               0.0000
     22 H22         33.7277  20.7439  56.2468 H              1 RES1               0.0000
     23 H23         35.7092  20.5783  59.7886 H              1 RES1               0.0000
     24 H24         35.6400  15.7032  58.0644 H              1 RES1               0.0000
     25 H25         35.6455  17.2731  57.2643 H              1 RES1               0.0000
     26 H26         35.9527  17.1657  58.9962 H              1 RES1               0.0000
     27 H27         29.1280  16.7466  59.6366 H              1 RES1               0.0000
     28 H28         30.0640  20.6909  60.9584 H              1 RES1               0.0000
     29 H29         28.4677  18.8202  60.7945 H              1 RES1               0.0000
@<TRIPOS>BOND
    1    1    2 1     
    2    1    3 1     
    3    1    4 1     
    4    1    5 1     
    5    2    6 ar    
    6    2    7 ar    
    7    3    8 1     
    8    3    9 2     
    9    4   10 1     
   10    4   11 2     
   11    5   12 1     
   12    5   18 1     
   13    5   19 1     
   14    6   13 ar    
   15    6   20 1     
   16    7   14 ar    
   17    7   21 1     
   18    8   15 1     
   19    8   22 1     
   20   10   15 1     
   21   10   23 1     
   22   12   24 1     
   23   12   25 1     
   24   12   26 1     
   25   13   16 ar    
   26   13   27 1     
   27   14   16 ar    
   28   14   28 1     
   29   15   17 2     
   30   16   29 1     
@<TRIPOS>SUBSTRUCTURE
      1 RES1           1
@<TRIPOS>SET
DONOR_HYDROGENS      STATIC     ATOMS    <user>   **** ""
2 22 23
ATOM$RED        STATIC     ATOMS    COLORGROUP SYSTEM
2 22 23
@<TRIPOS>COMMENT
> <Gold.Version>
2022.3.0

> <Gold.Id.Protein>
unknown|3l9n_clean|pdb

> <Gold.Protein.RotatedTorsions>
[ 2826 2819 2817 2814 ] final  173.52 input   59.97 | X-H torsion
[ 5145 5136 5135 5133 ] final   52.54 input   59.99 | X-H torsion
[ 1819 1812 1811 1809 ] final  162.03 input   59.98 | X-H torsion
[ 2506 2497 2496 2494 ] final -118.64 input   59.98 | X-H torsion
[ 2581 2570 2569 2568 ] final  -68.50 input   60.01 | X-H torsion
[ 3119 3112 3110 3107 ] final  -18.14 input   60.01 | X-H torsion

> <Gold.Protein.ActiveResidues>
 THR48   LEU49   GLY50   THR51   GLY52   SER53   PHE54   GLY55   ARG56   VAL57  
 MET58   LEU59   TYR69   ALA70   MET71   LYS72   ILE73   LEU74   GLU91   LEU95  
 VAL104  LYS105  LEU106  MET118  VAL119  MET120  GLU121  TYR122  ALA123  PRO124 
 GLY125  GLY126  GLU127  MET128  PHE129  TYR164  ASP166  LYS168  PRO169  GLU170 
 ASN171  LEU172  MET173  ILE174  ASP175  LYS181  VAL182  THR183  ASP184  PHE185 
 GLY186  PHE187  THR201  PHE327  ASP328  TYR330 

> <Gold.Protein.RotatedAtoms>
   41.8463    9.5843   56.7357 H   0  0  0  0  0  0  0  0  0  0  0  0  # atno 1819 bound_to 1812
   26.6876   21.9582   53.3509 H   0  0  0  0  0  0  0  0  0  0  0  0  # atno 2506 bound_to 2497
   30.5645   27.1052   57.5120 H   0  0  0  0  0  0  0  0  0  0  0  0  # atno 2581 bound_to 2570
   29.2114   27.9512   57.0630 H   0  0  0  0  0  0  0  0  0  0  0  0  # atno 2582 bound_to 2570
   29.0594   26.5314   57.9056 H   0  0  0  0  0  0  0  0  0  0  0  0  # atno 2583 bound_to 2570
   30.9568   17.9516   55.5827 H   0  0  0  0  0  0  0  0  0  0  0  0  # atno 2826 bound_to 2819
   27.2085   29.0211   56.8965 H   0  0  0  0  0  0  0  0  0  0  0  0  # atno 3119 bound_to 3112
   39.1424   21.0557   61.0158 H   0  0  0  0  0  0  0  0  0  0  0  0  # atno 5145 bound_to 5136
   29.5702   18.7632   55.3233 LP  0  0  0  0  0  0  0  0  0  0  0  0  # atno 5479 bound_to 2819
   30.5176   18.3363   54.0636 LP  0  0  0  0  0  0  0  0  0  0  0  0  # atno 5480 bound_to 2819
   40.6415   21.6823   60.9283 LP  0  0  0  0  0  0  0  0  0  0  0  0  # atno 5483 bound_to 5136
   39.4497   22.5103   61.6770 LP  0  0  0  0  0  0  0  0  0  0  0  0  # atno 5484 bound_to 5136
   41.1750   10.7625   57.6357 LP  0  0  0  0  0  0  0  0  0  0  0  0  # atno 5511 bound_to 1812
   41.3841   10.9763   56.0303 LP  0  0  0  0  0  0  0  0  0  0  0  0  # atno 5512 bound_to 1812
   27.2310   21.0346   52.1263 LP  0  0  0  0  0  0  0  0  0  0  0  0  # atno 5533 bound_to 2497
   26.3496   20.3666   53.3278 LP  0  0  0  0  0  0  0  0  0  0  0  0  # atno 5534 bound_to 2497
   28.7221   28.6539   56.4260 LP  0  0  0  0  0  0  0  0  0  0  0  0  # atno 5545 bound_to 3112
   27.4623   28.3740   55.4255 LP  0  0  0  0  0  0  0  0  0  0  0  0  # atno 5546 bound_to 3112

> <Gold.Score>
     Fitness  S(hb_ext) S(vdw_ext)  S(hb_int)    S(int)      intcor
     37.80       2.70      25.98       0.00      -0.62      -0.76

> <Gold.Goldscore.Fitness>
37.7998

> <Gold.Goldscore.Internal.Vdw>
-0.7035

> <Gold.Goldscore.Internal.Torsion>
-0.6816

> <Gold.Goldscore.External.Vdw>
25.9756

> <Gold.Goldscore.Internal.HBond>
0.0000

> <Gold.Goldscore.External.HBond>
2.7035

> <Gold.Goldscore.Internal.Correction>
-0.7650

> <Gold.Goldscore.Hbonds>
donor molecule, donor type, donor heavy atom, donor atom, acceptor molecule, acceptor atom, score
      P1  H  2819  2826       L1     9  0.35
      L1  H     8    22       P1  2601  1.00

> <Gold.Goldscore.Internal.Vdw.Weighted>
-0.7035

> <Gold.Goldscore.Internal.Torsion.Weighted>
-0.6816

> <Gold.Goldscore.External.Vdw.Weighted>
35.7165

> <Gold.Goldscore.Internal.HBond.Weighted>
0.0000

> <Gold.Goldscore.External.HBond.Weighted>
2.7035

> <Gold.Goldscore.Internal.Correction.Weighted>
-0.7650

> <Gold.Rescore>
     Score     S(PLP)   S(hbond)     S(cho)   S(metal)  DE(clash)   DE(tors)     intcor
     36.61     -33.12       1.82       0.00       0.00       0.00       0.99       ----

> <Gold.PLP.Fitness>
36.6116

> <Gold.PLP.PLP>
-33.1164

> <Gold.PLP.part.hbond>
-1.7179

> <Gold.PLP.part.metal>
0.0000

> <Gold.PLP.part.buried>
-0.3513

> <Gold.PLP.part.nonpolar>
-32.7394

> <Gold.PLP.part.repulsive>
0.5138

> <Gold.PLP.ligand.clash>
0.0000

> <Gold.PLP.ligand.torsion>
0.9884

> <Gold.PLP.Chemscore.Hbond>
1.8240

> <Gold.PLP.Chemscore.CHOScore>
0.0000

> <Gold.PLP.Chemscore.Metal>
0.0000

> <Gold.Chemscore.Hbonds>
donor molecule, donor type, donor heavy atom, donor atom, acceptor molecule, acceptor atom, score
      L1  H     8    22       P1  2601  0.71
      P1  H  2819  2826       L1     9  1.00

> <Gold.PLP.Chemscore.Internal.Correction>
   9.000000E+99

