#       Name:                CT1002167954
#       Creating user name   hitesit
#       Creation time:       Sun Apr 16 22:50:17 2023


#       File generated by GOLD software.
#

@<TRIPOS>MOLECULE
CT1002167954|ligand_prepared|mol2|1|dock8
    29    30     1
SMALL
NO_CHARGES


@<TRIPOS>ATOM
      1 C1          33.5179  18.3888  58.9440 C.3            1 RES1               0.0000
      2 C2          32.2731  17.4831  58.8505 C.ar           1 RES1               0.0000
      3 C3          34.3397  17.8674  60.1192 C.2            1 RES1               0.0000
      4 C4          34.2236  18.2845  57.5965 C.2            1 RES1               0.0000
      5 C5          33.1892  19.8786  59.1971 C.3            1 RES1               0.0000
      6 C6          32.3027  16.3135  58.0969 C.ar           1 RES1               0.0000
      7 C7          31.0908  17.8021  59.5131 C.ar           1 RES1               0.0000
      8 N8          35.4828  17.1799  59.8352 N.am           1 RES1               0.0000
      9 O9          33.9699  18.0229  61.2765 O.2            1 RES1               0.0000
     10 N10         35.4641  17.7032  57.5646 N.am           1 RES1               0.0000
     11 O11         33.7095  18.6854  56.5596 O.2            1 RES1               0.0000
     12 C12         34.3760  20.8096  59.0051 C.3            1 RES1               0.0000
     13 C13         31.1917  15.4909  58.0113 C.ar           1 RES1               0.0000
     14 C14         29.9808  16.9782  59.4259 C.ar           1 RES1               0.0000
     15 C15         36.1125  17.1185  58.6181 C.2            1 RES1               0.0000
     16 C16         30.0302  15.8224  58.6759 C.ar           1 RES1               0.0000
     17 O17         37.2031  16.5672  58.4994 O.2            1 RES1               0.0000
     18 H18         32.3867  20.1840  58.5144 H              1 RES1               0.0000
     19 H19         32.8165  19.9886  60.2230 H              1 RES1               0.0000
     20 H20         33.2071  16.0375  57.5650 H              1 RES1               0.0000
     21 H21         31.0285  18.7069  60.1080 H              1 RES1               0.0000
     22 H22         35.9087  16.6637  60.5984 H              1 RES1               0.0000
     23 H23         35.9491  17.7068  56.6730 H              1 RES1               0.0000
     24 H24         34.0908  21.8422  59.1949 H              1 RES1               0.0000
     25 H25         35.1838  20.5504  59.6863 H              1 RES1               0.0000
     26 H26         34.7565  20.7446  57.9878 H              1 RES1               0.0000
     27 H27         31.2353  14.5831  57.4186 H              1 RES1               0.0000
     28 H28         29.0686  17.2433  59.9501 H              1 RES1               0.0000
     29 H29         29.1601  15.1777  58.6089 H              1 RES1               0.0000
@<TRIPOS>BOND
    1    1    2 1     
    2    1    3 1     
    3    1    4 1     
    4    1    5 1     
    5    2    6 ar    
    6    2    7 ar    
    7    3    8 1     
    8    3    9 2     
    9    4   10 1     
   10    4   11 2     
   11    5   12 1     
   12    5   18 1     
   13    5   19 1     
   14    6   13 ar    
   15    6   20 1     
   16    7   14 ar    
   17    7   21 1     
   18    8   15 1     
   19    8   22 1     
   20   10   15 1     
   21   10   23 1     
   22   12   24 1     
   23   12   25 1     
   24   12   26 1     
   25   13   16 ar    
   26   13   27 1     
   27   14   16 ar    
   28   14   28 1     
   29   15   17 2     
   30   16   29 1     
@<TRIPOS>SUBSTRUCTURE
      1 RES1           1
@<TRIPOS>SET
DONOR_HYDROGENS      STATIC     ATOMS    <user>   **** ""
2 22 23
ATOM$RED        STATIC     ATOMS    COLORGROUP SYSTEM
2 22 23
@<TRIPOS>COMMENT
> <Gold.Version>
2022.3.0

> <Gold.Id.Protein>
unknown|3l9n_clean|pdb

> <Gold.Protein.RotatedTorsions>
[ 2826 2819 2817 2814 ] final   56.35 input   59.97 | X-H torsion
[ 5145 5136 5135 5133 ] final   75.55 input   59.99 | X-H torsion
[ 1819 1812 1811 1809 ] final  -76.88 input   59.98 | X-H torsion
[ 2506 2497 2496 2494 ] final  -86.82 input   59.98 | X-H torsion
[ 2581 2570 2569 2568 ] final  -71.41 input   60.01 | X-H torsion
[ 3119 3112 3110 3107 ] final -134.92 input   60.01 | X-H torsion

> <Gold.Protein.ActiveResidues>
 THR48   LEU49   GLY50   THR51   GLY52   SER53   PHE54   GLY55   ARG56   VAL57  
 MET58   LEU59   TYR69   ALA70   MET71   LYS72   ILE73   LEU74   GLU91   LEU95  
 VAL104  LYS105  LEU106  MET118  VAL119  MET120  GLU121  TYR122  ALA123  PRO124 
 GLY125  GLY126  GLU127  MET128  PHE129  TYR164  ASP166  LYS168  PRO169  GLU170 
 ASN171  LEU172  MET173  ILE174  ASP175  LYS181  VAL182  THR183  ASP184  PHE185 
 GLY186  PHE187  THR201  PHE327  ASP328  TYR330 

> <Gold.Protein.RotatedAtoms>
   41.3756   10.9847   56.0452 H   0  0  0  0  0  0  0  0  0  0  0  0  # atno 1819 bound_to 1812
   26.4312   21.6306   53.6516 H   0  0  0  0  0  0  0  0  0  0  0  0  # atno 2506 bound_to 2497
   30.5589   27.0637   57.5366 H   0  0  0  0  0  0  0  0  0  0  0  0  # atno 2581 bound_to 2570
   29.2560   27.9671   57.0520 H   0  0  0  0  0  0  0  0  0  0  0  0  # atno 2582 bound_to 2570
   29.0205   26.5570   57.8919 H   0  0  0  0  0  0  0  0  0  0  0  0  # atno 2583 bound_to 2570
   29.5880   18.7470   55.3637 H   0  0  0  0  0  0  0  0  0  0  0  0  # atno 2826 bound_to 2819
   28.7056   28.6767   56.4713 H   0  0  0  0  0  0  0  0  0  0  0  0  # atno 3119 bound_to 3112
   38.9233   21.2961   61.1988 H   0  0  0  0  0  0  0  0  0  0  0  0  # atno 5145 bound_to 5136
   30.4776   18.3595   54.0572 LP  0  0  0  0  0  0  0  0  0  0  0  0  # atno 5479 bound_to 2819
   30.9884   17.9391   55.5502 LP  0  0  0  0  0  0  0  0  0  0  0  0  # atno 5480 bound_to 2819
   40.4996   21.3586   60.8003 LP  0  0  0  0  0  0  0  0  0  0  0  0  # atno 5483 bound_to 5136
   39.8123   22.5919   61.6207 LP  0  0  0  0  0  0  0  0  0  0  0  0  # atno 5484 bound_to 5136
   41.8528    9.5817   56.7181 LP  0  0  0  0  0  0  0  0  0  0  0  0  # atno 5511 bound_to 1812
   41.1802   10.7471   57.6433 LP  0  0  0  0  0  0  0  0  0  0  0  0  # atno 5512 bound_to 1812
   27.2631   21.5339   52.2564 LP  0  0  0  0  0  0  0  0  0  0  0  0  # atno 5533 bound_to 2497
   26.5757   20.1973   52.8949 LP  0  0  0  0  0  0  0  0  0  0  0  0  # atno 5534 bound_to 2497
   27.5119   28.3626   55.4114 LP  0  0  0  0  0  0  0  0  0  0  0  0  # atno 5545 bound_to 3112
   27.1640   29.0124   56.8685 LP  0  0  0  0  0  0  0  0  0  0  0  0  # atno 5546 bound_to 3112

> <Gold.Score>
     Fitness  S(hb_ext) S(vdw_ext)  S(hb_int)    S(int)      intcor
     35.07       0.00      25.76       0.00      -0.35      -0.76

> <Gold.Goldscore.Fitness>
35.0651

> <Gold.Goldscore.Internal.Vdw>
-0.5303

> <Gold.Goldscore.Internal.Torsion>
-0.5868

> <Gold.Goldscore.External.Vdw>
25.7580

> <Gold.Goldscore.Internal.HBond>
0.0000

> <Gold.Goldscore.External.HBond>
0.0000

> <Gold.Goldscore.Internal.Correction>
-0.7650

> <Gold.Goldscore.Internal.Vdw.Weighted>
-0.5303

> <Gold.Goldscore.Internal.Torsion.Weighted>
-0.5868

> <Gold.Goldscore.External.Vdw.Weighted>
35.4173

> <Gold.Goldscore.Internal.HBond.Weighted>
0.0000

> <Gold.Goldscore.External.HBond.Weighted>
0.0000

> <Gold.Goldscore.Internal.Correction.Weighted>
-0.7650

> <Gold.Rescore>
     Score     S(PLP)   S(hbond)     S(cho)   S(metal)  DE(clash)   DE(tors)     intcor
     27.48     -27.67       0.00       0.00       0.00       0.00       0.10       ----

> <Gold.PLP.Fitness>
27.4804

> <Gold.PLP.PLP>
-27.6732

> <Gold.PLP.part.hbond>
0.0000

> <Gold.PLP.part.metal>
0.0000

> <Gold.PLP.part.buried>
-0.3650

> <Gold.PLP.part.nonpolar>
-32.2209

> <Gold.PLP.part.repulsive>
4.6263

> <Gold.PLP.ligand.clash>
0.0000

> <Gold.PLP.ligand.torsion>
0.0964

> <Gold.PLP.Chemscore.Hbond>
0.0000

> <Gold.PLP.Chemscore.CHOScore>
0.0000

> <Gold.PLP.Chemscore.Metal>
0.0000

> <Gold.PLP.Chemscore.Internal.Correction>
   9.000000E+99

