#       Name:                CT1002167954
#       Creating user name   hitesit
#       Creation time:       Sun Apr 16 22:50:19 2023


#       File generated by GOLD software.
#

@<TRIPOS>MOLECULE
CT1002167954|ligand_prepared|mol2|1|dock10
    29    30     1
SMALL
NO_CHARGES


@<TRIPOS>ATOM
      1 C1          31.6173  20.2330  59.0244 C.3            1 RES1               0.0000
      2 C2          31.1417  21.6841  59.2408 C.ar           1 RES1               0.0000
      3 C3          30.8612  19.3786  60.0376 C.2            1 RES1               0.0000
      4 C4          31.3067  19.8946  57.5705 C.2            1 RES1               0.0000
      5 C5          33.1343  20.0327  59.2479 C.3            1 RES1               0.0000
      6 C6          31.7758  22.7413  58.5952 C.ar           1 RES1               0.0000
      7 C7          30.0706  21.9804  60.0795 C.ar           1 RES1               0.0000
      8 N8          29.8552  18.5855  59.5698 N.am           1 RES1               0.0000
      9 O9          31.1175  19.4298  61.2343 O.2            1 RES1               0.0000
     10 N10         30.3702  18.9253  57.3228 N.am           1 RES1               0.0000
     11 O11         31.8523  20.4703  56.6371 O.2            1 RES1               0.0000
     12 C12         33.5861  18.5858  59.1275 C.3            1 RES1               0.0000
     13 C13         31.3526  24.0473  58.7789 C.ar           1 RES1               0.0000
     14 C14         29.6491  23.2871  60.2621 C.ar           1 RES1               0.0000
     15 C15         29.6082  18.2771  58.2562 C.2            1 RES1               0.0000
     16 C16         30.2888  24.3210  59.6120 C.ar           1 RES1               0.0000
     17 O17         28.7472  17.4564  57.9523 O.2            1 RES1               0.0000
     18 H18         33.6821  20.6359  58.5134 H              1 RES1               0.0000
     19 H19         33.3958  20.4022  60.2471 H              1 RES1               0.0000
     20 H20         32.6162  22.5455  57.9377 H              1 RES1               0.0000
     21 H21         29.5530  21.1831  60.6021 H              1 RES1               0.0000
     22 H22         29.2286  18.1848  60.2605 H              1 RES1               0.0000
     23 H23         30.2282  18.6626  56.3526 H              1 RES1               0.0000
     24 H24         34.6581  18.5014  59.2931 H              1 RES1               0.0000
     25 H25         33.0797  17.9613  59.8605 H              1 RES1               0.0000
     26 H26         33.3643  18.1936  58.1371 H              1 RES1               0.0000
     27 H27         31.8603  24.8575  58.2661 H              1 RES1               0.0000
     28 H28         28.8118  23.4980  60.9192 H              1 RES1               0.0000
     29 H29         29.9572  25.3441  59.7555 H              1 RES1               0.0000
@<TRIPOS>BOND
    1    1    2 1     
    2    1    3 1     
    3    1    4 1     
    4    1    5 1     
    5    2    6 ar    
    6    2    7 ar    
    7    3    8 1     
    8    3    9 2     
    9    4   10 1     
   10    4   11 2     
   11    5   12 1     
   12    5   18 1     
   13    5   19 1     
   14    6   13 ar    
   15    6   20 1     
   16    7   14 ar    
   17    7   21 1     
   18    8   15 1     
   19    8   22 1     
   20   10   15 1     
   21   10   23 1     
   22   12   24 1     
   23   12   25 1     
   24   12   26 1     
   25   13   16 ar    
   26   13   27 1     
   27   14   16 ar    
   28   14   28 1     
   29   15   17 2     
   30   16   29 1     
@<TRIPOS>SUBSTRUCTURE
      1 RES1           1
@<TRIPOS>SET
DONOR_HYDROGENS      STATIC     ATOMS    <user>   **** ""
2 22 23
ATOM$RED        STATIC     ATOMS    COLORGROUP SYSTEM
2 22 23
@<TRIPOS>COMMENT
> <Gold.Version>
2022.3.0

> <Gold.Id.Protein>
unknown|3l9n_clean|pdb

> <Gold.Protein.RotatedTorsions>
[ 2826 2819 2817 2814 ] final  -70.37 input   59.97 | X-H torsion
[ 5145 5136 5135 5133 ] final   81.93 input   59.99 | X-H torsion
[ 1819 1812 1811 1809 ] final   -7.35 input   59.98 | X-H torsion
[ 2506 2497 2496 2494 ] final  -19.68 input   59.98 | X-H torsion
[ 2581 2570 2569 2568 ] final  -72.35 input   60.01 | X-H torsion
[ 3119 3112 3110 3107 ] final   12.34 input   60.01 | X-H torsion

> <Gold.Protein.ActiveResidues>
 THR48   LEU49   GLY50   THR51   GLY52   SER53   PHE54   GLY55   ARG56   VAL57  
 MET58   LEU59   TYR69   ALA70   MET71   LYS72   ILE73   LEU74   GLU91   LEU95  
 VAL104  LYS105  LEU106  MET118  VAL119  MET120  GLU121  TYR122  ALA123  PRO124 
 GLY125  GLY126  GLU127  MET128  PHE129  TYR164  ASP166  LYS168  PRO169  GLU170 
 ASN171  LEU172  MET173  ILE174  ASP175  LYS181  VAL182  THR183  ASP184  PHE185 
 GLY186  PHE187  THR201  PHE327  ASP328  TYR330 

> <Gold.Protein.RotatedAtoms>
   41.0744   11.2556   57.0333 H   0  0  0  0  0  0  0  0  0  0  0  0  # atno 1819 bound_to 1812
   26.2658   20.6135   53.5507 H   0  0  0  0  0  0  0  0  0  0  0  0  # atno 2506 bound_to 2497
   30.5565   27.0503   57.5446 H   0  0  0  0  0  0  0  0  0  0  0  0  # atno 2581 bound_to 2570
   29.2706   27.9718   57.0487 H   0  0  0  0  0  0  0  0  0  0  0  0  # atno 2582 bound_to 2570
   29.0082   26.5657   57.8872 H   0  0  0  0  0  0  0  0  0  0  0  0  # atno 2583 bound_to 2570
   30.5691   18.3029   54.0822 H   0  0  0  0  0  0  0  0  0  0  0  0  # atno 2826 bound_to 2819
   26.9235   28.8933   56.5164 H   0  0  0  0  0  0  0  0  0  0  0  0  # atno 3119 bound_to 3112
   38.8845   21.3776   61.2512 H   0  0  0  0  0  0  0  0  0  0  0  0  # atno 5145 bound_to 5136
   30.9235   17.9685   55.6349 LP  0  0  0  0  0  0  0  0  0  0  0  0  # atno 5479 bound_to 2819
   29.5546   18.7774   55.2629 LP  0  0  0  0  0  0  0  0  0  0  0  0  # atno 5480 bound_to 2819
   40.4373   21.2776   60.7755 LP  0  0  0  0  0  0  0  0  0  0  0  0  # atno 5483 bound_to 5136
   39.9136   22.5908   61.5927 LP  0  0  0  0  0  0  0  0  0  0  0  0  # atno 5484 bound_to 5136
   41.7101   10.2703   55.9046 LP  0  0  0  0  0  0  0  0  0  0  0  0  # atno 5511 bound_to 1812
   41.6261    9.7857   57.4618 LP  0  0  0  0  0  0  0  0  0  0  0  0  # atno 5512 bound_to 1812
   26.8765   22.0459   53.0783 LP  0  0  0  0  0  0  0  0  0  0  0  0  # atno 5533 bound_to 2497
   27.1289   20.7094   52.1746 LP  0  0  0  0  0  0  0  0  0  0  0  0  # atno 5534 bound_to 2497
   28.5185   28.8477   56.8343 LP  0  0  0  0  0  0  0  0  0  0  0  0  # atno 5545 bound_to 3112
   27.9531   28.3090   55.4002 LP  0  0  0  0  0  0  0  0  0  0  0  0  # atno 5546 bound_to 3112

> <Gold.Score>
     Fitness  S(hb_ext) S(vdw_ext)  S(hb_int)    S(int)      intcor
     31.78       2.39      22.61       0.00      -1.70      -0.76

> <Gold.Goldscore.Fitness>
31.7845

> <Gold.Goldscore.Internal.Vdw>
-2.0612

> <Gold.Goldscore.Internal.Torsion>
-0.3945

> <Gold.Goldscore.External.Vdw>
22.6109

> <Gold.Goldscore.Internal.HBond>
0.0000

> <Gold.Goldscore.External.HBond>
2.3917

> <Gold.Goldscore.Internal.Correction>
-0.7585

> <Gold.Goldscore.Hbonds>
donor molecule, donor type, donor heavy atom, donor atom, acceptor molecule, acceptor atom, score
      P1  H   936   949       L1    17  0.07
      L1  H    10    23       P1  2819  1.00

> <Gold.Goldscore.Internal.Vdw.Weighted>
-2.0612

> <Gold.Goldscore.Internal.Torsion.Weighted>
-0.3945

> <Gold.Goldscore.External.Vdw.Weighted>
31.0900

> <Gold.Goldscore.Internal.HBond.Weighted>
0.0000

> <Gold.Goldscore.External.HBond.Weighted>
2.3917

> <Gold.Goldscore.Internal.Correction.Weighted>
-0.7585

> <Gold.Rescore>
     Score     S(PLP)   S(hbond)     S(cho)   S(metal)  DE(clash)   DE(tors)     intcor
     19.33     -18.88       0.73       0.00       0.00       0.05       0.85       ----

> <Gold.PLP.Fitness>
19.3337

> <Gold.PLP.PLP>
-18.8786

> <Gold.PLP.part.hbond>
-1.8704

> <Gold.PLP.part.metal>
0.0000

> <Gold.PLP.part.buried>
7.4691

> <Gold.PLP.part.nonpolar>
-27.5051

> <Gold.PLP.part.repulsive>
2.6830

> <Gold.PLP.ligand.clash>
0.0549

> <Gold.PLP.ligand.torsion>
0.8456

> <Gold.PLP.Chemscore.Hbond>
0.7337

> <Gold.PLP.Chemscore.CHOScore>
0.0000

> <Gold.PLP.Chemscore.Metal>
0.0000

> <Gold.Chemscore.Hbonds>
donor molecule, donor type, donor heavy atom, donor atom, acceptor molecule, acceptor atom, score
      L1  H    10    23       P1  2819  0.78

> <Gold.PLP.Chemscore.Internal.Correction>
   9.000000E+99

