#       Name:                CT1002167954
#       Creating user name   hitesit
#       Creation time:       Sun Apr 16 22:52:06 2023


#       File generated by GOLD software.
#

@<TRIPOS>MOLECULE
CT1002167954|ligand_prepared|mol2|1|dock9
    29    30     1
SMALL
NO_CHARGES


@<TRIPOS>ATOM
      1 C1         114.3980 259.0940 350.9784 C.3            1 RES1               0.0000
      2 C2         114.5455 259.2204 349.4484 C.ar           1 RES1               0.0000
      3 C3         114.8434 257.6792 351.3364 C.2            1 RES1               0.0000
      4 C4         115.2669 260.1915 351.5828 C.2            1 RES1               0.0000
      5 C5         112.9511 259.2966 351.4855 C.3            1 RES1               0.0000
      6 C6         115.7432 258.8886 348.8222 C.ar           1 RES1               0.0000
      7 C7         113.4938 259.6639 348.6510 C.ar           1 RES1               0.0000
      8 N8         116.0542 257.5335 351.9468 N.am           1 RES1               0.0000
      9 O9         114.1605 256.7031 351.0518 O.2            1 RES1               0.0000
     10 N10        116.3583 259.8134 352.3201 N.am           1 RES1               0.0000
     11 O11        115.0256 261.3804 351.4134 O.2            1 RES1               0.0000
     12 C12        112.7718 258.9938 352.9648 C.3            1 RES1               0.0000
     13 C13        115.8836 258.9935 347.4483 C.ar           1 RES1               0.0000
     14 C14        113.6364 259.7683 347.2772 C.ar           1 RES1               0.0000
     15 C15        116.8088 258.5345 352.5038 C.2            1 RES1               0.0000
     16 C16        114.8304 259.4330 346.6749 C.ar           1 RES1               0.0000
     17 O17        117.8301 258.2778 353.1348 O.2            1 RES1               0.0000
     18 H18        112.6539 260.3360 351.2992 H              1 RES1               0.0000
     19 H19        112.2807 258.6476 350.9085 H              1 RES1               0.0000
     20 H20        116.5839 258.5432 349.4146 H              1 RES1               0.0000
     21 H21        112.5457 259.9343 349.1032 H              1 RES1               0.0000
     22 H22        116.4338 256.5932 351.9934 H              1 RES1               0.0000
     23 H23        116.8835 260.5539 352.7741 H              1 RES1               0.0000
     24 H24        111.7391 259.1518 353.2684 H              1 RES1               0.0000
     25 H25        113.0344 257.9604 353.1816 H              1 RES1               0.0000
     26 H26        113.4055 259.6387 353.5700 H              1 RES1               0.0000
     27 H27        116.8257 258.7296 346.9792 H              1 RES1               0.0000
     28 H28        112.8050 260.1153 346.6725 H              1 RES1               0.0000
     29 H29        114.9405 259.5147 345.5986 H              1 RES1               0.0000
@<TRIPOS>BOND
    1    1    2 1     
    2    1    3 1     
    3    1    4 1     
    4    1    5 1     
    5    2    6 ar    
    6    2    7 ar    
    7    3    8 1     
    8    3    9 2     
    9    4   10 1     
   10    4   11 2     
   11    5   12 1     
   12    5   18 1     
   13    5   19 1     
   14    6   13 ar    
   15    6   20 1     
   16    7   14 ar    
   17    7   21 1     
   18    8   15 1     
   19    8   22 1     
   20   10   15 1     
   21   10   23 1     
   22   12   24 1     
   23   12   25 1     
   24   12   26 1     
   25   13   16 ar    
   26   13   27 1     
   27   14   16 ar    
   28   14   28 1     
   29   15   17 2     
   30   16   29 1     
@<TRIPOS>SUBSTRUCTURE
      1 RES1           1
@<TRIPOS>SET
DONOR_HYDROGENS      STATIC     ATOMS    <user>   **** ""
2 22 23
ATOM$RED        STATIC     ATOMS    COLORGROUP SYSTEM
2 22 23
@<TRIPOS>COMMENT
> <Gold.Version>
2022.3.0

> <Gold.Id.Protein>
unknown|5adg_clean|pdb

> <Gold.Protein.RotatedTorsions>
[ 1111 1100 1101 1102 ] final -163.52 input   86.23 | X-H torsion
[ 1141 1124 1125 1126 ] final   97.22 input   63.27 | X-H torsion
[ 1161 1154 1155 1156 ] final  -44.96 input  128.69 | X-H torsion
[ 1181 1170 1171 1172 ] final  108.33 input   75.71 | X-H torsion
[ 1185 1175 1174 1171 ] final   88.05 input   60.03 | X-H torsion
[ 1205 1194 1195 1196 ] final  -74.53 input   99.83 | X-H torsion
[ 1241 1232 1233 1234 ] final -130.18 input  109.94 | X-H torsion
[ 13453 13433 13432 13430 ] final  173.34 input   60.02 | X-H torsion
[ 11610 11589 11588 11586 ] final  163.86 input   59.96 | X-H torsion
[ 11931 11915 11916 11917 ] final  -25.72 input  122.96 | X-H torsion
[ 13465 1067 1066 1065 ] final  -34.77 input   -0.00 | X-H torsion
[ 13468 1103 1102 1101 ] final   66.31 input   -0.00 | X-H torsion
[ 13471 1127 1126 1125 ] final   99.07 input   -0.00 | X-H torsion
[ 13476 1157 1156 1155 ] final -175.03 input    0.00 | X-H torsion
[ 13479 1173 1172 1171 ] final   13.16 input    0.00 | X-H torsion
[ 13484 1197 1196 1195 ] final  -73.29 input   -0.00 | X-H torsion

> <Gold.Protein.ActiveResidues>
 VAL308  THR329  CYS331  ILE335  CYS336  MET337  GLY338  SER339  ILE340  MET341 
 PRO343  SER418  ARG419  ARG423  PHE663  TYR671  CYS677  PRO678  ALA679  ASP680 
 TRP681  VAL682  TRP683  ILE684  VAL685  VAL695  GLN698  GLU699  MET700  LEU701 
 ASN702  TYR703  H4B760 

> <Gold.Protein.RotatedAtoms>
  110.5354  261.9089  344.9482 H   0  0  0  0  0  0  0  0  0  0  0  0  # atno 1111 bound_to 1100
  110.4241  260.2989  341.1234 H   0  0  0  0  0  0  0  0  0  0  0  0  # atno 1141 bound_to 1124
  110.7297  257.3273  340.0290 H   0  0  0  0  0  0  0  0  0  0  0  0  # atno 1161 bound_to 1154
  111.1351  254.8120  341.0441 H   0  0  0  0  0  0  0  0  0  0  0  0  # atno 1181 bound_to 1170
  108.7265  252.2225  341.5105 H   0  0  0  0  0  0  0  0  0  0  0  0  # atno 1185 bound_to 1175
  109.3943  253.3891  338.7218 H   0  0  0  0  0  0  0  0  0  0  0  0  # atno 1205 bound_to 1194
  108.2265  252.9639  336.2624 H   0  0  0  0  0  0  0  0  0  0  0  0  # atno 1241 bound_to 1232
  101.9091  254.4462  345.0722 H   0  0  0  0  0  0  0  0  0  0  0  0  # atno 11610 bound_to 11589
  118.5693  250.9450  337.9526 H   0  0  0  0  0  0  0  0  0  0  0  0  # atno 11931 bound_to 11915
  109.9979  250.4768  338.1766 H   0  0  0  0  0  0  0  0  0  0  0  0  # atno 13453 bound_to 13433
  109.0744  263.3122  342.7606 LP  0  0  0  0  0  0  0  0  0  0  0  0  # atno 13465 bound_to 1067
  110.7174  262.7640  342.7510 LP  0  0  0  0  0  0  0  0  0  0  0  0  # atno 13466 bound_to 1067
  109.3326  260.6522  344.7956 LP  0  0  0  0  0  0  0  0  0  0  0  0  # atno 13467 bound_to 1100
  108.6238  259.0209  343.9300 LP  0  0  0  0  0  0  0  0  0  0  0  0  # atno 13468 bound_to 1103
  109.5581  257.6456  343.4445 LP  0  0  0  0  0  0  0  0  0  0  0  0  # atno 13469 bound_to 1103
  110.5956  259.0991  342.3842 LP  0  0  0  0  0  0  0  0  0  0  0  0  # atno 13470 bound_to 1124
  110.3859  257.3708  337.9561 LP  0  0  0  0  0  0  0  0  0  0  0  0  # atno 13471 bound_to 1127
  109.5263  256.1520  338.8368 LP  0  0  0  0  0  0  0  0  0  0  0  0  # atno 13472 bound_to 1127
  111.8670  257.8330  341.2602 LP  0  0  0  0  0  0  0  0  0  0  0  0  # atno 13475 bound_to 1154
  112.4720  253.5641  338.2148 LP  0  0  0  0  0  0  0  0  0  0  0  0  # atno 13476 bound_to 1157
  113.6194  254.8572  338.1077 LP  0  0  0  0  0  0  0  0  0  0  0  0  # atno 13477 bound_to 1157
  111.5760  255.1024  339.3817 LP  0  0  0  0  0  0  0  0  0  0  0  0  # atno 13478 bound_to 1170
  109.1110  251.2326  339.2013 LP  0  0  0  0  0  0  0  0  0  0  0  0  # atno 13479 bound_to 1173
  108.1353  252.0108  338.0003 LP  0  0  0  0  0  0  0  0  0  0  0  0  # atno 13480 bound_to 1173
  109.4775  253.6453  341.7519 LP  0  0  0  0  0  0  0  0  0  0  0  0  # atno 13481 bound_to 1175
  109.7869  252.3781  342.7344 LP  0  0  0  0  0  0  0  0  0  0  0  0  # atno 13482 bound_to 1175
  109.3954  255.1336  338.7955 LP  0  0  0  0  0  0  0  0  0  0  0  0  # atno 13483 bound_to 1194
  109.2824  255.5285  335.3584 LP  0  0  0  0  0  0  0  0  0  0  0  0  # atno 13484 bound_to 1197
  110.1995  254.0703  335.5391 LP  0  0  0  0  0  0  0  0  0  0  0  0  # atno 13485 bound_to 1197
  106.7689  253.5023  335.4750 LP  0  0  0  0  0  0  0  0  0  0  0  0  # atno 13504 bound_to 1232
  109.5321  250.1388  336.6545 LP  0  0  0  0  0  0  0  0  0  0  0  0  # atno 13509 bound_to 13433
  111.0721  249.8604  337.1211 LP  0  0  0  0  0  0  0  0  0  0  0  0  # atno 13510 bound_to 13433

> <Gold.Score>
     Fitness  S(hb_ext) S(vdw_ext)  S(hb_int)    S(int)      intcor
     37.89       1.54      26.55       0.00      -0.15      -0.77

> <Gold.Goldscore.Fitness>
37.8948

> <Gold.Goldscore.Internal.Vdw>
-0.4510

> <Gold.Goldscore.Internal.Torsion>
-0.4613

> <Gold.Goldscore.External.Vdw>
26.5450

> <Gold.Goldscore.Internal.HBond>
0.0000

> <Gold.Goldscore.External.HBond>
1.5423

> <Gold.Goldscore.Internal.Correction>
-0.7653

> <Gold.Goldscore.Hbonds>
donor molecule, donor type, donor heavy atom, donor atom, acceptor molecule, acceptor atom, score
      P1  H 12548 12568       L1     9  0.77

> <Gold.Goldscore.Internal.Vdw.Weighted>
-0.4510

> <Gold.Goldscore.Internal.Torsion.Weighted>
-0.4613

> <Gold.Goldscore.External.Vdw.Weighted>
36.4994

> <Gold.Goldscore.Internal.HBond.Weighted>
0.0000

> <Gold.Goldscore.External.HBond.Weighted>
1.5423

> <Gold.Goldscore.Internal.Correction.Weighted>
-0.7653

> <Gold.Rescore>
     Score     S(PLP)   S(hbond)     S(cho)   S(metal)  DE(clash)   DE(tors)     intcor
     38.54     -36.11       1.00       0.00       0.00       0.00       0.29       ----

> <Gold.PLP.Fitness>
38.5352

> <Gold.PLP.PLP>
-36.1084

> <Gold.PLP.part.hbond>
-2.0000

> <Gold.PLP.part.metal>
0.0000

> <Gold.PLP.part.buried>
-7.4888

> <Gold.PLP.part.nonpolar>
-27.2696

> <Gold.PLP.part.repulsive>
0.5131

> <Gold.PLP.ligand.clash>
0.0000

> <Gold.PLP.ligand.torsion>
0.2866

> <Gold.PLP.Chemscore.Hbond>
1.0000

> <Gold.PLP.Chemscore.CHOScore>
0.0000

> <Gold.PLP.Chemscore.Metal>
0.0000

> <Gold.Chemscore.Hbonds>
donor molecule, donor type, donor heavy atom, donor atom, acceptor molecule, acceptor atom, score
      P1  H 12548 12568       L1     9  1.00

> <Gold.PLP.Chemscore.Internal.Correction>
   9.000000E+99

#       Name:                CT1002167954
#       Creating user name   hitesit
#       Creation time:       Sun Apr 16 22:51:59 2023


#       File generated by GOLD software.
#

@<TRIPOS>MOLECULE
CT1002167954|ligand_prepared|mol2|1|dock1
    29    30     1
SMALL
NO_CHARGES


@<TRIPOS>ATOM
      1 C1         113.8908 259.8444 351.0208 C.3            1 RES1               0.0000
      2 C2         114.7325 259.4911 349.7777 C.ar           1 RES1               0.0000
      3 C3         114.6447 260.9543 351.7474 C.2            1 RES1               0.0000
      4 C4         112.5185 260.2603 350.5028 C.2            1 RES1               0.0000
      5 C5         113.6942 258.6626 351.9987 C.3            1 RES1               0.0000
      6 C6         115.9641 258.8574 349.9125 C.ar           1 RES1               0.0000
      7 C7         114.2902 259.7897 348.4917 C.ar           1 RES1               0.0000
      8 N8         114.1388 262.2184 351.6681 N.am           1 RES1               0.0000
      9 O9         115.6886 260.7307 352.3477 O.2            1 RES1               0.0000
     10 N10        112.1302 261.5616 350.6864 N.am           1 RES1               0.0000
     11 O11        111.7768 259.4771 349.9224 O.2            1 RES1               0.0000
     12 C12        112.7184 258.9564 353.1273 C.3            1 RES1               0.0000
     13 C13        116.7247 258.5312 348.8019 C.ar           1 RES1               0.0000
     14 C14        115.0525 259.4628 347.3824 C.ar           1 RES1               0.0000
     15 C15        112.8907 262.5670 351.2183 C.2            1 RES1               0.0000
     16 C16        116.2693 258.8333 347.5362 C.ar           1 RES1               0.0000
     17 O17        112.4915 263.7251 351.3004 O.2            1 RES1               0.0000
     18 H18        113.3310 257.7944 351.4350 H              1 RES1               0.0000
     19 H19        114.6663 258.3978 352.4326 H              1 RES1               0.0000
     20 H20        116.3400 258.6140 350.9007 H              1 RES1               0.0000
     21 H21        113.3365 260.2857 348.3467 H              1 RES1               0.0000
     22 H22        114.7446 262.9743 351.9713 H              1 RES1               0.0000
     23 H23        111.1867 261.8031 350.4002 H              1 RES1               0.0000
     24 H24        112.6172 258.0948 353.7838 H              1 RES1               0.0000
     25 H25        113.0614 259.7989 353.7243 H              1 RES1               0.0000
     26 H26        111.7339 259.1991 352.7326 H              1 RES1               0.0000
     27 H27        117.6823 258.0370 348.9285 H              1 RES1               0.0000
     28 H28        114.6904 259.7030 346.3882 H              1 RES1               0.0000
     29 H29        116.8652 258.5773 346.6664 H              1 RES1               0.0000
@<TRIPOS>BOND
    1    1    2 1     
    2    1    3 1     
    3    1    4 1     
    4    1    5 1     
    5    2    6 ar    
    6    2    7 ar    
    7    3    8 1     
    8    3    9 2     
    9    4   10 1     
   10    4   11 2     
   11    5   12 1     
   12    5   18 1     
   13    5   19 1     
   14    6   13 ar    
   15    6   20 1     
   16    7   14 ar    
   17    7   21 1     
   18    8   15 1     
   19    8   22 1     
   20   10   15 1     
   21   10   23 1     
   22   12   24 1     
   23   12   25 1     
   24   12   26 1     
   25   13   16 ar    
   26   13   27 1     
   27   14   16 ar    
   28   14   28 1     
   29   15   17 2     
   30   16   29 1     
@<TRIPOS>SUBSTRUCTURE
      1 RES1           1
@<TRIPOS>SET
DONOR_HYDROGENS      STATIC     ATOMS    <user>   **** ""
2 22 23
ATOM$RED        STATIC     ATOMS    COLORGROUP SYSTEM
2 22 23
@<TRIPOS>COMMENT
> <Gold.Version>
2022.3.0

> <Gold.Id.Protein>
unknown|5adg_clean|pdb

> <Gold.Protein.RotatedTorsions>
[ 1111 1100 1101 1102 ] final   20.48 input   86.23 | X-H torsion
[ 1141 1124 1125 1126 ] final -126.66 input   63.27 | X-H torsion
[ 1161 1154 1155 1156 ] final  103.29 input  128.69 | X-H torsion
[ 1181 1170 1171 1172 ] final   28.50 input   75.71 | X-H torsion
[ 1185 1175 1174 1171 ] final -132.94 input   60.03 | X-H torsion
[ 1205 1194 1195 1196 ] final  -38.59 input   99.83 | X-H torsion
[ 1241 1232 1233 1234 ] final  -12.79 input  109.94 | X-H torsion
[ 13453 13433 13432 13430 ] final  -85.46 input   60.02 | X-H torsion
[ 11610 11589 11588 11586 ] final  -81.81 input   59.96 | X-H torsion
[ 11931 11915 11916 11917 ] final  176.88 input  122.96 | X-H torsion
[ 13465 1067 1066 1065 ] final   63.00 input   -0.00 | X-H torsion
[ 13468 1103 1102 1101 ] final  170.44 input   -0.00 | X-H torsion
[ 13471 1127 1126 1125 ] final   -1.30 input   -0.00 | X-H torsion
[ 13476 1157 1156 1155 ] final   -9.83 input    0.00 | X-H torsion
[ 13479 1173 1172 1171 ] final   86.01 input    0.00 | X-H torsion
[ 13484 1197 1196 1195 ] final   32.64 input   -0.00 | X-H torsion

> <Gold.Protein.ActiveResidues>
 VAL308  THR329  CYS331  ILE335  CYS336  MET337  GLY338  SER339  ILE340  MET341 
 PRO343  SER418  ARG419  ARG423  PHE663  TYR671  CYS677  PRO678  ALA679  ASP680 
 TRP681  VAL682  TRP683  ILE684  VAL685  VAL695  GLN698  GLU699  MET700  LEU701 
 ASN702  TYR703  H4B760 

> <Gold.Protein.RotatedAtoms>
  109.3493  260.6109  344.8404 H   0  0  0  0  0  0  0  0  0  0  0  0  # atno 1111 bound_to 1100
  110.0404  259.4340  342.4696 H   0  0  0  0  0  0  0  0  0  0  0  0  # atno 1141 bound_to 1124
  111.6794  257.4338  341.4501 H   0  0  0  0  0  0  0  0  0  0  0  0  # atno 1161 bound_to 1154
  110.5281  255.2456  340.2010 H   0  0  0  0  0  0  0  0  0  0  0  0  # atno 1181 bound_to 1170
  109.9017  252.6664  342.7330 H   0  0  0  0  0  0  0  0  0  0  0  0  # atno 1185 bound_to 1175
  109.7205  253.5733  338.3283 H   0  0  0  0  0  0  0  0  0  0  0  0  # atno 1205 bound_to 1194
  107.4698  254.0627  335.5943 H   0  0  0  0  0  0  0  0  0  0  0  0  # atno 1241 bound_to 1232
  102.6272  254.6671  346.4544 H   0  0  0  0  0  0  0  0  0  0  0  0  # atno 11610 bound_to 11589
  117.8011  251.9310  339.1653 H   0  0  0  0  0  0  0  0  0  0  0  0  # atno 11931 bound_to 11915
  111.1051  249.9393  337.4160 H   0  0  0  0  0  0  0  0  0  0  0  0  # atno 13453 bound_to 13433
  110.2425  263.6989  343.1954 LP  0  0  0  0  0  0  0  0  0  0  0  0  # atno 13465 bound_to 1067
  109.5493  262.3773  342.3163 LP  0  0  0  0  0  0  0  0  0  0  0  0  # atno 13466 bound_to 1067
  110.4966  261.9260  344.9014 LP  0  0  0  0  0  0  0  0  0  0  0  0  # atno 13467 bound_to 1100
  108.7248  258.0805  342.9442 LP  0  0  0  0  0  0  0  0  0  0  0  0  # atno 13468 bound_to 1103
  109.4570  258.5860  344.4303 LP  0  0  0  0  0  0  0  0  0  0  0  0  # atno 13469 bound_to 1103
  110.9685  259.9396  341.0762 LP  0  0  0  0  0  0  0  0  0  0  0  0  # atno 13470 bound_to 1124
  109.1810  257.1404  338.4710 LP  0  0  0  0  0  0  0  0  0  0  0  0  # atno 13471 bound_to 1127
  110.7312  256.3823  338.3219 LP  0  0  0  0  0  0  0  0  0  0  0  0  # atno 13472 bound_to 1127
  110.9492  257.7301  339.8867 LP  0  0  0  0  0  0  0  0  0  0  0  0  # atno 13475 bound_to 1154
  113.4722  254.9370  337.9601 LP  0  0  0  0  0  0  0  0  0  0  0  0  # atno 13476 bound_to 1157
  112.6192  253.4842  338.3623 LP  0  0  0  0  0  0  0  0  0  0  0  0  # atno 13477 bound_to 1157
  112.1759  254.6739  340.2149 LP  0  0  0  0  0  0  0  0  0  0  0  0  # atno 13478 bound_to 1170
  108.2080  251.6997  339.3569 LP  0  0  0  0  0  0  0  0  0  0  0  0  # atno 13479 bound_to 1173
  109.0383  251.5438  337.8448 LP  0  0  0  0  0  0  0  0  0  0  0  0  # atno 13480 bound_to 1173
  108.8116  252.0096  341.7197 LP  0  0  0  0  0  0  0  0  0  0  0  0  # atno 13481 bound_to 1175
  109.2687  253.5664  341.5347 LP  0  0  0  0  0  0  0  0  0  0  0  0  # atno 13482 bound_to 1175
  109.0747  254.9526  339.1823 LP  0  0  0  0  0  0  0  0  0  0  0  0  # atno 13483 bound_to 1194
  110.0924  254.8359  336.2395 LP  0  0  0  0  0  0  0  0  0  0  0  0  # atno 13484 bound_to 1197
  109.3896  254.7628  334.6581 LP  0  0  0  0  0  0  0  0  0  0  0  0  # atno 13485 bound_to 1197
  107.5217  252.4092  336.1397 LP  0  0  0  0  0  0  0  0  0  0  0  0  # atno 13504 bound_to 1232
  109.7214  250.5162  338.0490 LP  0  0  0  0  0  0  0  0  0  0  0  0  # atno 13509 bound_to 13433
  109.7679  250.0243  336.4925 LP  0  0  0  0  0  0  0  0  0  0  0  0  # atno 13510 bound_to 13433

> <Gold.Score>
     Fitness  S(hb_ext) S(vdw_ext)  S(hb_int)    S(int)      intcor
     36.00       0.00      27.54       0.00      -1.88      -0.78

> <Gold.Goldscore.Fitness>
35.9951

> <Gold.Goldscore.Internal.Vdw>
-2.2031

> <Gold.Goldscore.Internal.Torsion>
-0.4546

> <Gold.Goldscore.External.Vdw>
27.5425

> <Gold.Goldscore.Internal.HBond>
0.0000

> <Gold.Goldscore.External.HBond>
0.0000

> <Gold.Goldscore.Internal.Correction>
-0.7819

> <Gold.Goldscore.Internal.Vdw.Weighted>
-2.2031

> <Gold.Goldscore.Internal.Torsion.Weighted>
-0.4546

> <Gold.Goldscore.External.Vdw.Weighted>
37.8710

> <Gold.Goldscore.Internal.HBond.Weighted>
0.0000

> <Gold.Goldscore.External.HBond.Weighted>
0.0000

> <Gold.Goldscore.Internal.Correction.Weighted>
-0.7819

> <Gold.Rescore>
     Score     S(PLP)   S(hbond)     S(cho)   S(metal)  DE(clash)   DE(tors)     intcor
     30.59     -32.33       0.00       0.00       0.00       1.33       0.20       ----

> <Gold.PLP.Fitness>
30.5926

> <Gold.PLP.PLP>
-32.3349

> <Gold.PLP.part.hbond>
-0.1092

> <Gold.PLP.part.metal>
0.0000

> <Gold.PLP.part.buried>
-6.2853

> <Gold.PLP.part.nonpolar>
-25.7847

> <Gold.PLP.part.repulsive>
0.2647

> <Gold.PLP.ligand.clash>
1.3327

> <Gold.PLP.ligand.torsion>
0.2048

> <Gold.PLP.Chemscore.Hbond>
0.0000

> <Gold.PLP.Chemscore.CHOScore>
0.0000

> <Gold.PLP.Chemscore.Metal>
0.0000

> <Gold.PLP.Chemscore.Internal.Correction>
   9.000000E+99

#       Name:                CT1002167954
#       Creating user name   hitesit
#       Creation time:       Sun Apr 16 22:52:04 2023


#       File generated by GOLD software.
#

@<TRIPOS>MOLECULE
CT1002167954|ligand_prepared|mol2|1|dock6
    29    30     1
SMALL
NO_CHARGES


@<TRIPOS>ATOM
      1 C1         113.7481 259.4222 351.2813 C.3            1 RES1               0.0000
      2 C2         114.0176 259.3792 349.7633 C.ar           1 RES1               0.0000
      3 C3         114.6131 258.3286 351.9011 C.2            1 RES1               0.0000
      4 C4         114.1058 260.8322 351.7382 C.2            1 RES1               0.0000
      5 C5         112.2730 259.1564 351.6618 C.3            1 RES1               0.0000
      6 C6         115.1978 258.8326 349.2683 C.ar           1 RES1               0.0000
      7 C7         113.0959 259.8789 348.8471 C.ar           1 RES1               0.0000
      8 N8         115.7203 258.7169 352.5963 N.am           1 RES1               0.0000
      9 O9         114.3496 257.1422 351.7487 O.2            1 RES1               0.0000
     10 N10        115.1680 260.9806 352.5911 N.am           1 RES1               0.0000
     11 O11        113.4877 261.8175 351.3543 O.2            1 RES1               0.0000
     12 C12        112.0554 258.9259 353.1490 C.3            1 RES1               0.0000
     13 C13        115.4463 258.7845 347.9066 C.ar           1 RES1               0.0000
     14 C14        113.3465 259.8301 347.4857 C.ar           1 RES1               0.0000
     15 C15        116.0105 259.9900 353.0165 C.2            1 RES1               0.0000
     16 C16        114.5209 259.2827 347.0144 C.ar           1 RES1               0.0000
     17 O17        116.9776 260.2102 353.7400 O.2            1 RES1               0.0000
     18 H18        111.6666 260.0139 351.3450 H              1 RES1               0.0000
     19 H19        111.9199 258.2749 351.1125 H              1 RES1               0.0000
     20 H20        115.9389 258.4378 349.9552 H              1 RES1               0.0000
     21 H21        112.1657 260.3150 349.1951 H              1 RES1               0.0000
     22 H22        116.3949 257.9937 352.8248 H              1 RES1               0.0000
     23 H23        115.3472 261.9163 352.9413 H              1 RES1               0.0000
     24 H24        111.0039 258.7443 353.3613 H              1 RES1               0.0000
     25 H25        112.6243 258.0646 353.4931 H              1 RES1               0.0000
     26 H26        112.3724 259.7933 353.7242 H              1 RES1               0.0000
     27 H27        116.3727 258.3540 347.5408 H              1 RES1               0.0000
     28 H28        112.6156 260.2239 346.7873 H              1 RES1               0.0000
     29 H29        114.7157 259.2446 345.9478 H              1 RES1               0.0000
@<TRIPOS>BOND
    1    1    2 1     
    2    1    3 1     
    3    1    4 1     
    4    1    5 1     
    5    2    6 ar    
    6    2    7 ar    
    7    3    8 1     
    8    3    9 2     
    9    4   10 1     
   10    4   11 2     
   11    5   12 1     
   12    5   18 1     
   13    5   19 1     
   14    6   13 ar    
   15    6   20 1     
   16    7   14 ar    
   17    7   21 1     
   18    8   15 1     
   19    8   22 1     
   20   10   15 1     
   21   10   23 1     
   22   12   24 1     
   23   12   25 1     
   24   12   26 1     
   25   13   16 ar    
   26   13   27 1     
   27   14   16 ar    
   28   14   28 1     
   29   15   17 2     
   30   16   29 1     
@<TRIPOS>SUBSTRUCTURE
      1 RES1           1
@<TRIPOS>SET
DONOR_HYDROGENS      STATIC     ATOMS    <user>   **** ""
2 22 23
ATOM$RED        STATIC     ATOMS    COLORGROUP SYSTEM
2 22 23
@<TRIPOS>COMMENT
> <Gold.Version>
2022.3.0

> <Gold.Id.Protein>
unknown|5adg_clean|pdb

> <Gold.Protein.RotatedTorsions>
[ 1111 1100 1101 1102 ] final   52.11 input   86.23 | X-H torsion
[ 1141 1124 1125 1126 ] final  175.74 input   63.27 | X-H torsion
[ 1161 1154 1155 1156 ] final  -43.11 input  128.69 | X-H torsion
[ 1181 1170 1171 1172 ] final  -47.88 input   75.71 | X-H torsion
[ 1185 1175 1174 1171 ] final  141.10 input   60.03 | X-H torsion
[ 1205 1194 1195 1196 ] final  -54.01 input   99.83 | X-H torsion
[ 1241 1232 1233 1234 ] final  123.91 input  109.94 | X-H torsion
[ 13453 13433 13432 13430 ] final  119.83 input   60.02 | X-H torsion
[ 11610 11589 11588 11586 ] final  134.98 input   59.96 | X-H torsion
[ 11931 11915 11916 11917 ] final  -25.02 input  122.96 | X-H torsion
[ 13465 1067 1066 1065 ] final -114.41 input   -0.00 | X-H torsion
[ 13468 1103 1102 1101 ] final -175.99 input   -0.00 | X-H torsion
[ 13471 1127 1126 1125 ] final  147.29 input   -0.00 | X-H torsion
[ 13476 1157 1156 1155 ] final  158.67 input    0.00 | X-H torsion
[ 13479 1173 1172 1171 ] final  116.43 input    0.00 | X-H torsion
[ 13484 1197 1196 1195 ] final  -88.77 input   -0.00 | X-H torsion

> <Gold.Protein.ActiveResidues>
 VAL308  THR329  CYS331  ILE335  CYS336  MET337  GLY338  SER339  ILE340  MET341 
 PRO343  SER418  ARG419  ARG423  PHE663  TYR671  CYS677  PRO678  ALA679  ASP680 
 TRP681  VAL682  TRP683  ILE684  VAL685  VAL695  GLN698  GLU699  MET700  LEU701 
 ASN702  TYR703  H4B760 

> <Gold.Protein.RotatedAtoms>
  109.6646  260.4937  345.1833 H   0  0  0  0  0  0  0  0  0  0  0  0  # atno 1111 bound_to 1100
  109.7456  260.0769  341.9898 H   0  0  0  0  0  0  0  0  0  0  0  0  # atno 1141 bound_to 1124
  110.7217  257.3055  340.0460 H   0  0  0  0  0  0  0  0  0  0  0  0  # atno 1161 bound_to 1154
  111.2392  255.2291  339.3820 H   0  0  0  0  0  0  0  0  0  0  0  0  # atno 1181 bound_to 1170
  109.1090  251.8514  342.1544 H   0  0  0  0  0  0  0  0  0  0  0  0  # atno 1185 bound_to 1175
  109.5890  253.4549  338.4848 H   0  0  0  0  0  0  0  0  0  0  0  0  # atno 1205 bound_to 1194
  106.9490  252.5532  335.8856 H   0  0  0  0  0  0  0  0  0  0  0  0  # atno 1241 bound_to 1232
  102.0065  254.0146  344.9229 H   0  0  0  0  0  0  0  0  0  0  0  0  # atno 11610 bound_to 11589
  118.5653  250.9493  337.9436 H   0  0  0  0  0  0  0  0  0  0  0  0  # atno 11931 bound_to 11915
  109.3699  250.4758  337.6143 H   0  0  0  0  0  0  0  0  0  0  0  0  # atno 13453 bound_to 13433
  109.5144  262.3945  342.3196 LP  0  0  0  0  0  0  0  0  0  0  0  0  # atno 13465 bound_to 1067
  110.2774  263.6817  343.1920 LP  0  0  0  0  0  0  0  0  0  0  0  0  # atno 13466 bound_to 1067
  110.1871  262.0410  344.5649 LP  0  0  0  0  0  0  0  0  0  0  0  0  # atno 13467 bound_to 1100
  108.8697  257.9361  342.9501 LP  0  0  0  0  0  0  0  0  0  0  0  0  # atno 13468 bound_to 1103
  109.3121  258.7304  344.4244 LP  0  0  0  0  0  0  0  0  0  0  0  0  # atno 13469 bound_to 1103
  111.2549  259.3149  341.5424 LP  0  0  0  0  0  0  0  0  0  0  0  0  # atno 13470 bound_to 1124
  110.7714  256.7969  338.1066 LP  0  0  0  0  0  0  0  0  0  0  0  0  # atno 13471 bound_to 1127
  109.1408  256.7258  338.6863 LP  0  0  0  0  0  0  0  0  0  0  0  0  # atno 13472 bound_to 1127
  111.8747  257.8541  341.2438 LP  0  0  0  0  0  0  0  0  0  0  0  0  # atno 13475 bound_to 1154
  112.7536  253.4553  338.4681 LP  0  0  0  0  0  0  0  0  0  0  0  0  # atno 13476 bound_to 1157
  113.3378  254.9659  337.8543 LP  0  0  0  0  0  0  0  0  0  0  0  0  # atno 13477 bound_to 1157
  111.4731  254.6902  341.0243 LP  0  0  0  0  0  0  0  0  0  0  0  0  # atno 13478 bound_to 1170
  107.9418  251.9073  339.0528 LP  0  0  0  0  0  0  0  0  0  0  0  0  # atno 13479 bound_to 1173
  109.3045  251.3362  338.1489 LP  0  0  0  0  0  0  0  0  0  0  0  0  # atno 13480 bound_to 1173
  108.9258  253.2138  341.2844 LP  0  0  0  0  0  0  0  0  0  0  0  0  # atno 13481 bound_to 1175
  109.9533  253.1835  342.5531 LP  0  0  0  0  0  0  0  0  0  0  0  0  # atno 13482 bound_to 1175
  109.2040  255.0689  339.0284 LP  0  0  0  0  0  0  0  0  0  0  0  0  # atno 13483 bound_to 1194
  109.2365  255.4363  335.1491 LP  0  0  0  0  0  0  0  0  0  0  0  0  # atno 13484 bound_to 1197
  110.2455  254.1624  335.7484 LP  0  0  0  0  0  0  0  0  0  0  0  0  # atno 13485 bound_to 1197
  108.0398  253.9108  335.8499 LP  0  0  0  0  0  0  0  0  0  0  0  0  # atno 13504 bound_to 1232
  110.3020  249.8592  336.4315 LP  0  0  0  0  0  0  0  0  0  0  0  0  # atno 13509 bound_to 13433
  110.9346  250.1411  337.9103 LP  0  0  0  0  0  0  0  0  0  0  0  0  # atno 13510 bound_to 13433

> <Gold.Score>
     Fitness  S(hb_ext) S(vdw_ext)  S(hb_int)    S(int)      intcor
     34.46       0.79      25.21       0.00      -1.00      -0.77

> <Gold.Goldscore.Fitness>
34.4558

> <Gold.Goldscore.Internal.Vdw>
-1.1917

> <Gold.Goldscore.Internal.Torsion>
-0.5760

> <Gold.Goldscore.External.Vdw>
25.2117

> <Gold.Goldscore.Internal.HBond>
0.0000

> <Gold.Goldscore.External.HBond>
0.7922

> <Gold.Goldscore.Internal.Correction>
-0.7653

> <Gold.Goldscore.Hbonds>
donor molecule, donor type, donor heavy atom, donor atom, acceptor molecule, acceptor atom, score
      P1  H 12548 12568       L1     9  0.40

> <Gold.Goldscore.Internal.Vdw.Weighted>
-1.1917

> <Gold.Goldscore.Internal.Torsion.Weighted>
-0.5760

> <Gold.Goldscore.External.Vdw.Weighted>
34.6661

> <Gold.Goldscore.Internal.HBond.Weighted>
0.0000

> <Gold.Goldscore.External.HBond.Weighted>
0.7922

> <Gold.Goldscore.Internal.Correction.Weighted>
-0.7653

> <Gold.Rescore>
     Score     S(PLP)   S(hbond)     S(cho)   S(metal)  DE(clash)   DE(tors)     intcor
     27.57     -30.05       0.00       0.00       0.00       1.12       0.68       ----

> <Gold.PLP.Fitness>
27.5683

> <Gold.PLP.PLP>
-30.0496

> <Gold.PLP.part.hbond>
-1.0000

> <Gold.PLP.part.metal>
0.0000

> <Gold.PLP.part.buried>
-6.8030

> <Gold.PLP.part.nonpolar>
-22.1916

> <Gold.PLP.part.repulsive>
0.2781

> <Gold.PLP.ligand.clash>
1.1232

> <Gold.PLP.ligand.torsion>
0.6790

> <Gold.PLP.Chemscore.Hbond>
0.0000

> <Gold.PLP.Chemscore.CHOScore>
0.0000

> <Gold.PLP.Chemscore.Metal>
0.0000

> <Gold.PLP.Chemscore.Internal.Correction>
   9.000000E+99

#       Name:                CT1002167954
#       Creating user name   hitesit
#       Creation time:       Sun Apr 16 22:52:03 2023


#       File generated by GOLD software.
#

@<TRIPOS>MOLECULE
CT1002167954|ligand_prepared|mol2|1|dock5
    29    30     1
SMALL
NO_CHARGES


@<TRIPOS>ATOM
      1 C1         115.3329 259.4782 350.8395 C.3            1 RES1               0.0000
      2 C2         115.9382 259.4082 349.4227 C.ar           1 RES1               0.0000
      3 C3         114.4408 260.7159 350.8637 C.2            1 RES1               0.0000
      4 C4         114.5834 258.1669 351.0484 C.2            1 RES1               0.0000
      5 C5         116.3869 259.6103 351.9634 C.3            1 RES1               0.0000
      6 C6         117.0460 258.6066 349.1642 C.ar           1 RES1               0.0000
      7 C7         115.3992 260.1362 348.3653 C.ar           1 RES1               0.0000
      8 N8         113.0910 260.5223 350.8426 N.am           1 RES1               0.0000
      9 O9         114.9148 261.8453 350.8613 O.2            1 RES1               0.0000
     10 N10        113.2204 258.2203 351.1797 N.am           1 RES1               0.0000
     11 O11        115.1592 257.0864 351.0839 O.2            1 RES1               0.0000
     12 C12        115.7873 259.8275 353.3438 C.3            1 RES1               0.0000
     13 C13        117.5934 258.5330 347.8940 C.ar           1 RES1               0.0000
     14 C14        115.9482 260.0614 347.0959 C.ar           1 RES1               0.0000
     15 C15        112.4372 259.3353 351.0556 C.2            1 RES1               0.0000
     16 C16        117.0447 259.2599 346.8590 C.ar           1 RES1               0.0000
     17 O17        111.2126 259.2948 351.1323 O.2            1 RES1               0.0000
     18 H18        116.9980 258.6996 351.9833 H              1 RES1               0.0000
     19 H19        117.0488 260.4532 351.7294 H              1 RES1               0.0000
     20 H20        117.4929 258.0292 349.9667 H              1 RES1               0.0000
     21 H21        114.5372 260.7742 348.5285 H              1 RES1               0.0000
     22 H22        112.5143 261.3353 350.6508 H              1 RES1               0.0000
     23 H23        112.7458 257.3479 351.3896 H              1 RES1               0.0000
     24 H24        116.5696 259.9136 354.0950 H              1 RES1               0.0000
     25 H25        115.1932 260.7387 353.3673 H              1 RES1               0.0000
     26 H26        115.1427 258.9955 353.6196 H              1 RES1               0.0000
     27 H27        118.4571 257.9018 347.7131 H              1 RES1               0.0000
     28 H28        115.5135 260.6357 346.2844 H              1 RES1               0.0000
     29 H29        117.4734 259.2017 345.8640 H              1 RES1               0.0000
@<TRIPOS>BOND
    1    1    2 1     
    2    1    3 1     
    3    1    4 1     
    4    1    5 1     
    5    2    6 ar    
    6    2    7 ar    
    7    3    8 1     
    8    3    9 2     
    9    4   10 1     
   10    4   11 2     
   11    5   12 1     
   12    5   18 1     
   13    5   19 1     
   14    6   13 ar    
   15    6   20 1     
   16    7   14 ar    
   17    7   21 1     
   18    8   15 1     
   19    8   22 1     
   20   10   15 1     
   21   10   23 1     
   22   12   24 1     
   23   12   25 1     
   24   12   26 1     
   25   13   16 ar    
   26   13   27 1     
   27   14   16 ar    
   28   14   28 1     
   29   15   17 2     
   30   16   29 1     
@<TRIPOS>SUBSTRUCTURE
      1 RES1           1
@<TRIPOS>SET
DONOR_HYDROGENS      STATIC     ATOMS    <user>   **** ""
2 22 23
ATOM$RED        STATIC     ATOMS    COLORGROUP SYSTEM
2 22 23
@<TRIPOS>COMMENT
> <Gold.Version>
2022.3.0

> <Gold.Id.Protein>
unknown|5adg_clean|pdb

> <Gold.Protein.RotatedTorsions>
[ 1111 1100 1101 1102 ] final   30.84 input   86.23 | X-H torsion
[ 1141 1124 1125 1126 ] final  -27.67 input   63.27 | X-H torsion
[ 1161 1154 1155 1156 ] final  118.26 input  128.69 | X-H torsion
[ 1181 1170 1171 1172 ] final  -30.09 input   75.71 | X-H torsion
[ 1185 1175 1174 1171 ] final  -86.14 input   60.03 | X-H torsion
[ 1205 1194 1195 1196 ] final  159.50 input   99.83 | X-H torsion
[ 1241 1232 1233 1234 ] final   27.69 input  109.94 | X-H torsion
[ 13453 13433 13432 13430 ] final -167.34 input   60.02 | X-H torsion
[ 11610 11589 11588 11586 ] final  139.50 input   59.96 | X-H torsion
[ 11931 11915 11916 11917 ] final   72.88 input  122.96 | X-H torsion
[ 13465 1067 1066 1065 ] final -108.06 input   -0.00 | X-H torsion
[ 13468 1103 1102 1101 ] final -160.39 input   -0.00 | X-H torsion
[ 13471 1127 1126 1125 ] final  164.28 input   -0.00 | X-H torsion
[ 13476 1157 1156 1155 ] final  -90.38 input    0.00 | X-H torsion
[ 13479 1173 1172 1171 ] final -164.21 input    0.00 | X-H torsion
[ 13484 1197 1196 1195 ] final -175.43 input   -0.00 | X-H torsion

> <Gold.Protein.ActiveResidues>
 VAL308  THR329  CYS331  ILE335  CYS336  MET337  GLY338  SER339  ILE340  MET341 
 PRO343  SER418  ARG419  ARG423  PHE663  TYR671  CYS677  PRO678  ALA679  ASP680 
 TRP681  VAL682  TRP683  ILE684  VAL685  VAL695  GLN698  GLU699  MET700  LEU701 
 ASN702  TYR703  H4B760 

> <Gold.Protein.RotatedAtoms>
  109.4374  260.5477  344.9569 H   0  0  0  0  0  0  0  0  0  0  0  0  # atno 1111 bound_to 1100
  111.1788  259.1096  341.8229 H   0  0  0  0  0  0  0  0  0  0  0  0  # atno 1141 bound_to 1124
  111.8030  257.6219  341.3942 H   0  0  0  0  0  0  0  0  0  0  0  0  # atno 1161 bound_to 1154
  110.9927  255.2854  339.4801 H   0  0  0  0  0  0  0  0  0  0  0  0  # atno 1181 bound_to 1170
  109.9123  253.3421  342.4234 H   0  0  0  0  0  0  0  0  0  0  0  0  # atno 1185 bound_to 1175
  108.9492  254.7624  339.3362 H   0  0  0  0  0  0  0  0  0  0  0  0  # atno 1205 bound_to 1194
  106.9456  253.7868  335.4753 H   0  0  0  0  0  0  0  0  0  0  0  0  # atno 1241 bound_to 1232
  101.9828  254.0838  344.9332 H   0  0  0  0  0  0  0  0  0  0  0  0  # atno 11610 bound_to 11589
  117.7125  251.9672  337.7690 H   0  0  0  0  0  0  0  0  0  0  0  0  # atno 11931 bound_to 11915
  110.3013  250.4060  338.2169 H   0  0  0  0  0  0  0  0  0  0  0  0  # atno 13453 bound_to 13433
  109.4321  262.4423  342.3317 LP  0  0  0  0  0  0  0  0  0  0  0  0  # atno 13465 bound_to 1067
  110.3598  263.6339  343.1800 LP  0  0  0  0  0  0  0  0  0  0  0  0  # atno 13466 bound_to 1067
  110.4101  261.9880  344.7871 LP  0  0  0  0  0  0  0  0  0  0  0  0  # atno 13467 bound_to 1100
  109.0510  257.7980  343.0076 LP  0  0  0  0  0  0  0  0  0  0  0  0  # atno 13468 bound_to 1103
  109.1309  258.8686  344.3669 LP  0  0  0  0  0  0  0  0  0  0  0  0  # atno 13469 bound_to 1103
  109.8623  260.2548  341.7045 LP  0  0  0  0  0  0  0  0  0  0  0  0  # atno 13470 bound_to 1124
  110.7803  256.5658  338.2162 LP  0  0  0  0  0  0  0  0  0  0  0  0  # atno 13471 bound_to 1127
  109.1319  256.9569  338.5768 LP  0  0  0  0  0  0  0  0  0  0  0  0  # atno 13472 bound_to 1127
  110.8297  257.5483  339.9408 LP  0  0  0  0  0  0  0  0  0  0  0  0  # atno 13475 bound_to 1154
  112.4930  254.5451  337.5845 LP  0  0  0  0  0  0  0  0  0  0  0  0  # atno 13476 bound_to 1157
  113.5984  253.8762  338.7380 LP  0  0  0  0  0  0  0  0  0  0  0  0  # atno 13477 bound_to 1157
  111.7167  254.6346  340.9273 LP  0  0  0  0  0  0  0  0  0  0  0  0  # atno 13478 bound_to 1170
  108.1625  252.0012  337.9732 LP  0  0  0  0  0  0  0  0  0  0  0  0  # atno 13479 bound_to 1173
  109.0837  251.2423  339.2284 LP  0  0  0  0  0  0  0  0  0  0  0  0  # atno 13480 bound_to 1173
  109.2421  251.8637  342.3149 LP  0  0  0  0  0  0  0  0  0  0  0  0  # atno 13481 bound_to 1175
  108.8276  253.0315  341.2515 LP  0  0  0  0  0  0  0  0  0  0  0  0  # atno 13482 bound_to 1175
  109.8329  253.7838  338.1915 LP  0  0  0  0  0  0  0  0  0  0  0  0  # atno 13483 bound_to 1194
  109.6081  254.4054  334.6891 LP  0  0  0  0  0  0  0  0  0  0  0  0  # atno 13484 bound_to 1197
  109.8738  255.1933  336.2085 LP  0  0  0  0  0  0  0  0  0  0  0  0  # atno 13485 bound_to 1197
  108.0431  252.6836  336.2581 LP  0  0  0  0  0  0  0  0  0  0  0  0  # atno 13504 bound_to 1232
  109.3645  250.2586  336.8945 LP  0  0  0  0  0  0  0  0  0  0  0  0  # atno 13509 bound_to 13433
  110.9342  249.8119  336.8405 LP  0  0  0  0  0  0  0  0  0  0  0  0  # atno 13510 bound_to 13433

> <Gold.Score>
     Fitness  S(hb_ext) S(vdw_ext)  S(hb_int)    S(int)      intcor
     31.74       0.15      23.86       0.00      -1.23      -0.77

> <Gold.Goldscore.Fitness>
31.7365

> <Gold.Goldscore.Internal.Vdw>
-1.5638

> <Gold.Goldscore.Internal.Torsion>
-0.4313

> <Gold.Goldscore.External.Vdw>
23.8642

> <Gold.Goldscore.Internal.HBond>
0.0000

> <Gold.Goldscore.External.HBond>
0.1530

> <Gold.Goldscore.Internal.Correction>
-0.7653

> <Gold.Goldscore.Hbonds>
donor molecule, donor type, donor heavy atom, donor atom, acceptor molecule, acceptor atom, score
      P1  H 12548 12568       L1    11  0.08

> <Gold.Goldscore.Internal.Vdw.Weighted>
-1.5638

> <Gold.Goldscore.Internal.Torsion.Weighted>
-0.4313

> <Gold.Goldscore.External.Vdw.Weighted>
32.8132

> <Gold.Goldscore.Internal.HBond.Weighted>
0.0000

> <Gold.Goldscore.External.HBond.Weighted>
0.1530

> <Gold.Goldscore.Internal.Correction.Weighted>
-0.7653

> <Gold.Rescore>
     Score     S(PLP)   S(hbond)     S(cho)   S(metal)  DE(clash)   DE(tors)     intcor
     33.63     -35.38       0.00       0.00       0.00       0.02       0.86       ----

> <Gold.PLP.Fitness>
33.6298

> <Gold.PLP.PLP>
-35.3788

> <Gold.PLP.part.hbond>
-3.6973

> <Gold.PLP.part.metal>
0.0000

> <Gold.PLP.part.buried>
-7.2955

> <Gold.PLP.part.nonpolar>
-25.5973

> <Gold.PLP.part.repulsive>
0.5534

> <Gold.PLP.ligand.clash>
0.0218

> <Gold.PLP.ligand.torsion>
0.8635

> <Gold.PLP.Chemscore.Hbond>
0.0000

> <Gold.PLP.Chemscore.CHOScore>
0.0000

> <Gold.PLP.Chemscore.Metal>
0.0000

> <Gold.PLP.Chemscore.Internal.Correction>
   9.000000E+99

#       Name:                CT1002167954
#       Creating user name   hitesit
#       Creation time:       Sun Apr 16 22:52:01 2023


#       File generated by GOLD software.
#

@<TRIPOS>MOLECULE
CT1002167954|ligand_prepared|mol2|1|dock3
    29    30     1
SMALL
NO_CHARGES


@<TRIPOS>ATOM
      1 C1         116.0584 258.5138 347.0382 C.3            1 RES1               0.0000
      2 C2         115.2489 259.2716 348.1103 C.ar           1 RES1               0.0000
      3 C3         116.3959 257.1524 347.6390 C.2            1 RES1               0.0000
      4 C4         115.1691 258.4449 345.8016 C.2            1 RES1               0.0000
      5 C5         117.3776 259.2154 346.6395 C.3            1 RES1               0.0000
      6 C6         115.8752 259.7764 349.2458 C.ar           1 RES1               0.0000
      7 C7         113.8781 259.4756 347.9765 C.ar           1 RES1               0.0000
      8 N8         115.7148 256.0681 347.1694 N.am           1 RES1               0.0000
      9 O9         117.2188 257.0373 348.5389 O.2            1 RES1               0.0000
     10 N10        114.7298 257.2125 345.3945 N.am           1 RES1               0.0000
     11 O11        114.8313 259.4484 345.1859 O.2            1 RES1               0.0000
     12 C12        117.2347 260.7140 346.4256 C.3            1 RES1               0.0000
     13 C13        115.1578 260.4629 350.2114 C.ar           1 RES1               0.0000
     14 C14        113.1625 260.1623 348.9434 C.ar           1 RES1               0.0000
     15 C15        114.9372 256.0240 346.0402 C.2            1 RES1               0.0000
     16 C16        113.8012 260.6567 350.0607 C.ar           1 RES1               0.0000
     17 O17        114.4635 254.9639 345.6417 O.2            1 RES1               0.0000
     18 H18        118.1223 259.0403 347.4258 H              1 RES1               0.0000
     19 H19        117.7536 258.7610 345.7145 H              1 RES1               0.0000
     20 H20        116.9417 259.6315 349.3829 H              1 RES1               0.0000
     21 H21        113.3544 259.0946 347.1064 H              1 RES1               0.0000
     22 H22        115.7906 255.2109 347.7076 H              1 RES1               0.0000
     23 H23        114.1992 257.1777 344.5299 H              1 RES1               0.0000
     24 H24        118.1889 261.1567 346.1478 H              1 RES1               0.0000
     25 H25        116.5200 260.9241 345.6326 H              1 RES1               0.0000
     26 H26        116.8864 261.2017 347.3338 H              1 RES1               0.0000
     27 H27        115.6650 260.8489 351.0895 H              1 RES1               0.0000
     28 H28        112.0949 260.3119 348.8210 H              1 RES1               0.0000
     29 H29        113.2395 261.1949 350.8170 H              1 RES1               0.0000
@<TRIPOS>BOND
    1    1    2 1     
    2    1    3 1     
    3    1    4 1     
    4    1    5 1     
    5    2    6 ar    
    6    2    7 ar    
    7    3    8 1     
    8    3    9 2     
    9    4   10 1     
   10    4   11 2     
   11    5   12 1     
   12    5   18 1     
   13    5   19 1     
   14    6   13 ar    
   15    6   20 1     
   16    7   14 ar    
   17    7   21 1     
   18    8   15 1     
   19    8   22 1     
   20   10   15 1     
   21   10   23 1     
   22   12   24 1     
   23   12   25 1     
   24   12   26 1     
   25   13   16 ar    
   26   13   27 1     
   27   14   16 ar    
   28   14   28 1     
   29   15   17 2     
   30   16   29 1     
@<TRIPOS>SUBSTRUCTURE
      1 RES1           1
@<TRIPOS>SET
DONOR_HYDROGENS      STATIC     ATOMS    <user>   **** ""
2 22 23
ATOM$RED        STATIC     ATOMS    COLORGROUP SYSTEM
2 22 23
@<TRIPOS>COMMENT
> <Gold.Version>
2022.3.0

> <Gold.Id.Protein>
unknown|5adg_clean|pdb

> <Gold.Protein.RotatedTorsions>
[ 1111 1100 1101 1102 ] final   56.37 input   86.23 | X-H torsion
[ 1141 1124 1125 1126 ] final  172.85 input   63.27 | X-H torsion
[ 1161 1154 1155 1156 ] final -157.71 input  128.69 | X-H torsion
[ 1181 1170 1171 1172 ] final  105.89 input   75.71 | X-H torsion
[ 1185 1175 1174 1171 ] final  -99.64 input   60.03 | X-H torsion
[ 1205 1194 1195 1196 ] final -176.43 input   99.83 | X-H torsion
[ 1241 1232 1233 1234 ] final -107.92 input  109.94 | X-H torsion
[ 13453 13433 13432 13430 ] final  -27.87 input   60.02 | X-H torsion
[ 11610 11589 11588 11586 ] final   73.84 input   59.96 | X-H torsion
[ 11931 11915 11916 11917 ] final   45.70 input  122.96 | X-H torsion
[ 13465 1067 1066 1065 ] final   91.03 input   -0.00 | X-H torsion
[ 13468 1103 1102 1101 ] final  -25.11 input   -0.00 | X-H torsion
[ 13471 1127 1126 1125 ] final  108.01 input   -0.00 | X-H torsion
[ 13476 1157 1156 1155 ] final   57.69 input    0.00 | X-H torsion
[ 13479 1173 1172 1171 ] final -131.41 input    0.00 | X-H torsion
[ 13484 1197 1196 1195 ] final  108.31 input   -0.00 | X-H torsion

> <Gold.Protein.ActiveResidues>
 VAL308  THR329  CYS331  ILE335  CYS336  MET337  GLY338  SER339  ILE340  MET341 
 PRO343  SER418  ARG419  ARG423  PHE663  TYR671  CYS677  PRO678  ALA679  ASP680 
 TRP681  VAL682  TRP683  ILE684  VAL685  VAL695  GLN698  GLU699  MET700  LEU701 
 ASN702  TYR703  H4B760 

> <Gold.Protein.RotatedAtoms>
  109.7156  260.4957  345.2245 H   0  0  0  0  0  0  0  0  0  0  0  0  # atno 1111 bound_to 1100
  109.7501  260.1039  341.9545 H   0  0  0  0  0  0  0  0  0  0  0  0  # atno 1141 bound_to 1124
  111.7788  258.3011  340.4153 H   0  0  0  0  0  0  0  0  0  0  0  0  # atno 1161 bound_to 1154
  111.1010  254.8255  341.0366 H   0  0  0  0  0  0  0  0  0  0  0  0  # atno 1181 bound_to 1170
  109.9517  253.1694  342.5539 H   0  0  0  0  0  0  0  0  0  0  0  0  # atno 1185 bound_to 1175
  108.8543  254.4224  339.4369 H   0  0  0  0  0  0  0  0  0  0  0  0  # atno 1205 bound_to 1194
  108.3064  253.2830  336.1887 H   0  0  0  0  0  0  0  0  0  0  0  0  # atno 1241 bound_to 1232
  102.5174  253.2850  345.2596 H   0  0  0  0  0  0  0  0  0  0  0  0  # atno 11610 bound_to 11589
  117.9434  251.6794  337.5740 H   0  0  0  0  0  0  0  0  0  0  0  0  # atno 11931 bound_to 11915
  110.7075  249.8026  336.6180 H   0  0  0  0  0  0  0  0  0  0  0  0  # atno 13453 bound_to 13433
  110.5692  263.4490  343.1133 LP  0  0  0  0  0  0  0  0  0  0  0  0  # atno 13465 bound_to 1067
  109.2227  262.6271  342.3983 LP  0  0  0  0  0  0  0  0  0  0  0  0  # atno 13466 bound_to 1067
  110.1371  262.0390  344.5245 LP  0  0  0  0  0  0  0  0  0  0  0  0  # atno 13467 bound_to 1100
  109.5975  258.4037  344.3861 LP  0  0  0  0  0  0  0  0  0  0  0  0  # atno 13468 bound_to 1103
  108.5844  258.2628  342.9884 LP  0  0  0  0  0  0  0  0  0  0  0  0  # atno 13469 bound_to 1103
  111.2506  259.2886  341.5767 LP  0  0  0  0  0  0  0  0  0  0  0  0  # atno 13470 bound_to 1124
  110.4910  257.2861  337.9622 LP  0  0  0  0  0  0  0  0  0  0  0  0  # atno 13471 bound_to 1127
  109.4212  256.2367  338.8307 LP  0  0  0  0  0  0  0  0  0  0  0  0  # atno 13472 bound_to 1127
  110.8531  256.8919  340.8869 LP  0  0  0  0  0  0  0  0  0  0  0  0  # atno 13475 bound_to 1154
  113.7921  254.2868  338.5937 LP  0  0  0  0  0  0  0  0  0  0  0  0  # atno 13476 bound_to 1157
  112.2993  254.1345  337.7288 LP  0  0  0  0  0  0  0  0  0  0  0  0  # atno 13477 bound_to 1157
  111.6096  255.0891  339.3891 LP  0  0  0  0  0  0  0  0  0  0  0  0  # atno 13478 bound_to 1170
  108.5647  251.8219  337.7603 LP  0  0  0  0  0  0  0  0  0  0  0  0  # atno 13479 bound_to 1173
  108.6816  251.4215  339.4414 LP  0  0  0  0  0  0  0  0  0  0  0  0  # atno 13480 bound_to 1173
  109.0978  251.8456  342.1475 LP  0  0  0  0  0  0  0  0  0  0  0  0  # atno 13481 bound_to 1175
  108.9321  253.2237  341.2874 LP  0  0  0  0  0  0  0  0  0  0  0  0  # atno 13482 bound_to 1175
  109.9261  254.1180  338.0925 LP  0  0  0  0  0  0  0  0  0  0  0  0  # atno 13483 bound_to 1194
  110.1928  254.0637  335.5168 LP  0  0  0  0  0  0  0  0  0  0  0  0  # atno 13484 bound_to 1197
  109.2892  255.5351  335.3807 LP  0  0  0  0  0  0  0  0  0  0  0  0  # atno 13485 bound_to 1197
  106.6894  253.1848  335.5484 LP  0  0  0  0  0  0  0  0  0  0  0  0  # atno 13504 bound_to 1232
  110.5990  250.3100  338.1603 LP  0  0  0  0  0  0  0  0  0  0  0  0  # atno 13509 bound_to 13433
  109.2908  250.3681  337.1847 LP  0  0  0  0  0  0  0  0  0  0  0  0  # atno 13510 bound_to 13433

> <Gold.Score>
     Fitness  S(hb_ext) S(vdw_ext)  S(hb_int)    S(int)      intcor
     26.96       2.20      20.17       0.00      -2.96      -0.78

> <Gold.Goldscore.Fitness>
26.9641

> <Gold.Goldscore.Internal.Vdw>
-3.0099

> <Gold.Goldscore.Internal.Torsion>
-0.7350

> <Gold.Goldscore.External.Vdw>
20.1679

> <Gold.Goldscore.Internal.HBond>
0.0000

> <Gold.Goldscore.External.HBond>
2.1961

> <Gold.Goldscore.Internal.Correction>
-0.7819

> <Gold.Goldscore.Hbonds>
donor molecule, donor type, donor heavy atom, donor atom, acceptor molecule, acceptor atom, score
      P1  H 11908 11922       L1    17  0.04
      P1  H  3498  3535       L1     9  0.19
      L1  H     8    22       P1 11843  0.17

> <Gold.Goldscore.Internal.Vdw.Weighted>
-3.0099

> <Gold.Goldscore.Internal.Torsion.Weighted>
-0.7350

> <Gold.Goldscore.External.Vdw.Weighted>
27.7309

> <Gold.Goldscore.Internal.HBond.Weighted>
0.0000

> <Gold.Goldscore.External.HBond.Weighted>
2.1961

> <Gold.Goldscore.Internal.Correction.Weighted>
-0.7819

> <Gold.Rescore>
     Score     S(PLP)   S(hbond)     S(cho)   S(metal)  DE(clash)   DE(tors)     intcor
     20.82     -17.74       1.51       0.00       0.00       1.41       0.03       ----

> <Gold.PLP.Fitness>
20.8199

> <Gold.PLP.PLP>
-17.7432

> <Gold.PLP.part.hbond>
-2.9414

> <Gold.PLP.part.metal>
0.0000

> <Gold.PLP.part.buried>
14.6730

> <Gold.PLP.part.nonpolar>
-33.5011

> <Gold.PLP.part.repulsive>
3.2837

> <Gold.PLP.ligand.clash>
1.4100

> <Gold.PLP.ligand.torsion>
0.0274

> <Gold.PLP.Chemscore.Hbond>
1.5138

> <Gold.PLP.Chemscore.CHOScore>
0.0000

> <Gold.PLP.Chemscore.Metal>
0.0000

> <Gold.Chemscore.Hbonds>
donor molecule, donor type, donor heavy atom, donor atom, acceptor molecule, acceptor atom, score
      L1  H     8    22       P1 11843  0.23
      P1  H  3498  3535       L1     9  0.77

> <Gold.PLP.Chemscore.Internal.Correction>
   9.000000E+99

#       Name:                CT1002167954
#       Creating user name   hitesit
#       Creation time:       Sun Apr 16 22:52:06 2023


#       File generated by GOLD software.
#

@<TRIPOS>MOLECULE
CT1002167954|ligand_prepared|mol2|1|dock8
    29    30     1
SMALL
NO_CHARGES


@<TRIPOS>ATOM
      1 C1         115.2442 259.8803 350.5915 C.3            1 RES1               0.0000
      2 C2         115.9503 259.2151 349.3924 C.ar           1 RES1               0.0000
      3 C3         113.9423 260.4649 350.0515 C.2            1 RES1               0.0000
      4 C4         115.0491 258.7843 351.6333 C.2            1 RES1               0.0000
      5 C5         116.0610 261.0198 351.2440 C.3            1 RES1               0.0000
      6 C6         115.4600 259.3803 348.1005 C.ar           1 RES1               0.0000
      7 C7         117.0924 258.4370 349.5618 C.ar           1 RES1               0.0000
      8 N8         112.7817 259.8232 350.3694 N.am           1 RES1               0.0000
      9 O9         113.9375 261.4512 349.3253 O.2            1 RES1               0.0000
     10 N10        113.7670 258.4058 351.9347 N.am           1 RES1               0.0000
     11 O11        115.9945 258.2336 352.1838 O.2            1 RES1               0.0000
     12 C12        115.3229 261.7418 352.3603 C.3            1 RES1               0.0000
     13 C13        116.0902 258.7915 347.0168 C.ar           1 RES1               0.0000
     14 C14        117.7210 257.8488 348.4767 C.ar           1 RES1               0.0000
     15 C15        112.6256 258.8540 351.3276 C.2            1 RES1               0.0000
     16 C16        117.2212 258.0258 347.2041 C.ar           1 RES1               0.0000
     17 O17        111.5118 258.4258 351.6158 O.2            1 RES1               0.0000
     18 H18        116.9906 260.6010 351.6486 H              1 RES1               0.0000
     19 H19        116.3307 261.7489 350.4700 H              1 RES1               0.0000
     20 H20        114.5696 259.9774 347.9340 H              1 RES1               0.0000
     21 H21        117.5027 258.2831 350.5541 H              1 RES1               0.0000
     22 H22        111.9532 260.0882 349.8463 H              1 RES1               0.0000
     23 H23        113.6530 257.7271 352.6808 H              1 RES1               0.0000
     24 H24        115.9404 262.5313 352.7835 H              1 RES1               0.0000
     25 H25        114.4053 262.1922 351.9877 H              1 RES1               0.0000
     26 H26        115.0612 261.0511 353.1593 H              1 RES1               0.0000
     27 H27        115.6921 258.9327 346.0174 H              1 RES1               0.0000
     28 H28        118.6105 257.2465 348.6289 H              1 RES1               0.0000
     29 H29        117.7150 257.5649 346.3549 H              1 RES1               0.0000
@<TRIPOS>BOND
    1    1    2 1     
    2    1    3 1     
    3    1    4 1     
    4    1    5 1     
    5    2    6 ar    
    6    2    7 ar    
    7    3    8 1     
    8    3    9 2     
    9    4   10 1     
   10    4   11 2     
   11    5   12 1     
   12    5   18 1     
   13    5   19 1     
   14    6   13 ar    
   15    6   20 1     
   16    7   14 ar    
   17    7   21 1     
   18    8   15 1     
   19    8   22 1     
   20   10   15 1     
   21   10   23 1     
   22   12   24 1     
   23   12   25 1     
   24   12   26 1     
   25   13   16 ar    
   26   13   27 1     
   27   14   16 ar    
   28   14   28 1     
   29   15   17 2     
   30   16   29 1     
@<TRIPOS>SUBSTRUCTURE
      1 RES1           1
@<TRIPOS>SET
DONOR_HYDROGENS      STATIC     ATOMS    <user>   **** ""
2 22 23
ATOM$RED        STATIC     ATOMS    COLORGROUP SYSTEM
2 22 23
@<TRIPOS>COMMENT
> <Gold.Version>
2022.3.0

> <Gold.Id.Protein>
unknown|5adg_clean|pdb

> <Gold.Protein.RotatedTorsions>
[ 1111 1100 1101 1102 ] final  -80.37 input   86.23 | X-H torsion
[ 1141 1124 1125 1126 ] final  -63.76 input   63.27 | X-H torsion
[ 1161 1154 1155 1156 ] final  -48.85 input  128.69 | X-H torsion
[ 1181 1170 1171 1172 ] final   30.59 input   75.71 | X-H torsion
[ 1185 1175 1174 1171 ] final   43.83 input   60.03 | X-H torsion
[ 1205 1194 1195 1196 ] final  125.68 input   99.83 | X-H torsion
[ 1241 1232 1233 1234 ] final  -26.67 input  109.94 | X-H torsion
[ 13453 13433 13432 13430 ] final -108.04 input   60.02 | X-H torsion
[ 11610 11589 11588 11586 ] final -121.15 input   59.96 | X-H torsion
[ 11931 11915 11916 11917 ] final -116.24 input  122.96 | X-H torsion
[ 13465 1067 1066 1065 ] final  -13.00 input   -0.00 | X-H torsion
[ 13468 1103 1102 1101 ] final -175.83 input   -0.00 | X-H torsion
[ 13471 1127 1126 1125 ] final  -78.93 input   -0.00 | X-H torsion
[ 13476 1157 1156 1155 ] final  -24.51 input    0.00 | X-H torsion
[ 13479 1173 1172 1171 ] final -178.58 input    0.00 | X-H torsion
[ 13484 1197 1196 1195 ] final   73.65 input   -0.00 | X-H torsion

> <Gold.Protein.ActiveResidues>
 VAL308  THR329  CYS331  ILE335  CYS336  MET337  GLY338  SER339  ILE340  MET341 
 PRO343  SER418  ARG419  ARG423  PHE663  TYR671  CYS677  PRO678  ALA679  ASP680 
 TRP681  VAL682  TRP683  ILE684  VAL685  VAL695  GLN698  GLU699  MET700  LEU701 
 ASN702  TYR703  H4B760 

> <Gold.Protein.RotatedAtoms>
  109.6070  261.8043  344.2443 H   0  0  0  0  0  0  0  0  0  0  0  0  # atno 1111 bound_to 1100
  110.8340  259.0163  342.2406 H   0  0  0  0  0  0  0  0  0  0  0  0  # atno 1141 bound_to 1124
  110.7484  257.3740  339.9954 H   0  0  0  0  0  0  0  0  0  0  0  0  # atno 1161 bound_to 1154
  110.5258  255.2380  340.2319 H   0  0  0  0  0  0  0  0  0  0  0  0  # atno 1181 bound_to 1170
  108.7738  252.8773  341.2556 H   0  0  0  0  0  0  0  0  0  0  0  0  # atno 1185 bound_to 1175
  109.2076  255.0845  339.0329 H   0  0  0  0  0  0  0  0  0  0  0  0  # atno 1205 bound_to 1194
  107.6662  254.0675  335.6716 H   0  0  0  0  0  0  0  0  0  0  0  0  # atno 1241 bound_to 1232
  102.2564  254.9526  346.0322 H   0  0  0  0  0  0  0  0  0  0  0  0  # atno 11610 bound_to 11589
  118.4268  251.1787  339.1840 H   0  0  0  0  0  0  0  0  0  0  0  0  # atno 11931 bound_to 11915
  111.0255  250.0643  337.7511 H   0  0  0  0  0  0  0  0  0  0  0  0  # atno 13453 bound_to 13433
  109.2212  263.5539  342.9251 LP  0  0  0  0  0  0  0  0  0  0  0  0  # atno 13465 bound_to 1067
  110.5707  262.5223  342.5866 LP  0  0  0  0  0  0  0  0  0  0  0  0  # atno 13466 bound_to 1067
  110.2436  260.7549  345.4864 LP  0  0  0  0  0  0  0  0  0  0  0  0  # atno 13467 bound_to 1100
  108.8715  257.9346  342.9504 LP  0  0  0  0  0  0  0  0  0  0  0  0  # atno 13468 bound_to 1103
  109.3104  258.7320  344.4240 LP  0  0  0  0  0  0  0  0  0  0  0  0  # atno 13469 bound_to 1103
  110.1974  260.3454  341.2987 LP  0  0  0  0  0  0  0  0  0  0  0  0  # atno 13470 bound_to 1124
  109.5018  256.1697  338.8364 LP  0  0  0  0  0  0  0  0  0  0  0  0  # atno 13471 bound_to 1127
  110.4104  257.3530  337.9565 LP  0  0  0  0  0  0  0  0  0  0  0  0  # atno 13472 bound_to 1127
  111.8489  257.7879  341.2926 LP  0  0  0  0  0  0  0  0  0  0  0  0  # atno 13475 bound_to 1154
  113.2983  254.9686  337.8271 LP  0  0  0  0  0  0  0  0  0  0  0  0  # atno 13476 bound_to 1157
  112.7931  253.4527  338.4954 LP  0  0  0  0  0  0  0  0  0  0  0  0  # atno 13477 bound_to 1157
  112.1781  254.6814  340.1843 LP  0  0  0  0  0  0  0  0  0  0  0  0  # atno 13478 bound_to 1170
  108.0264  252.0437  338.1362 LP  0  0  0  0  0  0  0  0  0  0  0  0  # atno 13479 bound_to 1173
  109.2198  251.1998  339.0654 LP  0  0  0  0  0  0  0  0  0  0  0  0  # atno 13480 bound_to 1173
  109.8647  253.4550  342.3153 LP  0  0  0  0  0  0  0  0  0  0  0  0  # atno 13481 bound_to 1175
  109.3521  251.9086  342.4278 LP  0  0  0  0  0  0  0  0  0  0  0  0  # atno 13482 bound_to 1175
  109.5789  253.4672  338.4896 LP  0  0  0  0  0  0  0  0  0  0  0  0  # atno 13483 bound_to 1194
  110.2532  254.3226  335.9590 LP  0  0  0  0  0  0  0  0  0  0  0  0  # atno 13484 bound_to 1197
  109.2288  255.2761  334.9385 LP  0  0  0  0  0  0  0  0  0  0  0  0  # atno 13485 bound_to 1197
  107.3264  252.4044  336.0628 LP  0  0  0  0  0  0  0  0  0  0  0  0  # atno 13504 bound_to 1232
  109.4602  250.5076  337.7884 LP  0  0  0  0  0  0  0  0  0  0  0  0  # atno 13509 bound_to 13433
  110.1093  249.9071  336.4155 LP  0  0  0  0  0  0  0  0  0  0  0  0  # atno 13510 bound_to 13433

> <Gold.Score>
     Fitness  S(hb_ext) S(vdw_ext)  S(hb_int)    S(int)      intcor
     25.74       0.00      23.82       0.00      -7.00      -0.77

> <Gold.Goldscore.Fitness>
25.7446

> <Gold.Goldscore.Internal.Vdw>
-7.3707

> <Gold.Goldscore.Internal.Torsion>
-0.3981

> <Gold.Goldscore.External.Vdw>
23.8169

> <Gold.Goldscore.Internal.HBond>
0.0000

> <Gold.Goldscore.External.HBond>
0.0000

> <Gold.Goldscore.Internal.Correction>
-0.7653

> <Gold.Goldscore.Internal.Vdw.Weighted>
-7.3707

> <Gold.Goldscore.Internal.Torsion.Weighted>
-0.3981

> <Gold.Goldscore.External.Vdw.Weighted>
32.7482

> <Gold.Goldscore.Internal.HBond.Weighted>
0.0000

> <Gold.Goldscore.External.HBond.Weighted>
0.0000

> <Gold.Goldscore.Internal.Correction.Weighted>
-0.7653

> <Gold.Rescore>
     Score     S(PLP)   S(hbond)     S(cho)   S(metal)  DE(clash)   DE(tors)     intcor
     32.79     -34.78       0.08       0.00       0.00       0.59       0.81       ----

> <Gold.PLP.Fitness>
32.7881

> <Gold.PLP.PLP>
-34.7787

> <Gold.PLP.part.hbond>
-2.0000

> <Gold.PLP.part.metal>
0.0000

> <Gold.PLP.part.buried>
-5.8463

> <Gold.PLP.part.nonpolar>
-27.6213

> <Gold.PLP.part.repulsive>
0.3852

> <Gold.PLP.ligand.clash>
0.5928

> <Gold.PLP.ligand.torsion>
0.8116

> <Gold.PLP.Chemscore.Hbond>
0.0751

> <Gold.PLP.Chemscore.CHOScore>
0.0000

> <Gold.PLP.Chemscore.Metal>
0.0000

> <Gold.PLP.Chemscore.Internal.Correction>
   9.000000E+99

#       Name:                CT1002167954
#       Creating user name   hitesit
#       Creation time:       Sun Apr 16 22:52:00 2023


#       File generated by GOLD software.
#

@<TRIPOS>MOLECULE
CT1002167954|ligand_prepared|mol2|1|dock2
    29    30     1
SMALL
NO_CHARGES


@<TRIPOS>ATOM
      1 C1         113.8546 255.0688 344.2149 C.3            1 RES1               0.0000
      2 C2         114.5604 256.0691 345.1528 C.ar           1 RES1               0.0000
      3 C3         113.0083 254.1671 345.1088 C.2            1 RES1               0.0000
      4 C4         113.0450 255.9054 343.2304 C.2            1 RES1               0.0000
      5 C5         114.8263 254.1819 343.4020 C.3            1 RES1               0.0000
      6 C6         114.0166 257.3292 345.3834 C.ar           1 RES1               0.0000
      7 C7         115.7525 255.7458 345.7956 C.ar           1 RES1               0.0000
      8 N8         111.6577 254.3559 345.0990 N.am           1 RES1               0.0000
      9 O9         113.5215 253.3299 345.8409 O.2            1 RES1               0.0000
     10 N10        111.6788 255.8100 343.2783 N.am           1 RES1               0.0000
     11 O11        113.5772 256.6590 342.4247 O.2            1 RES1               0.0000
     12 C12        114.2659 253.7247 342.0644 C.3            1 RES1               0.0000
     13 C13        114.6402 258.2323 346.2283 C.ar           1 RES1               0.0000
     14 C14        116.3746 256.6506 346.6399 C.ar           1 RES1               0.0000
     15 C15        110.9476 255.0964 344.1885 C.2            1 RES1               0.0000
     16 C16        115.8192 257.8936 346.8574 C.ar           1 RES1               0.0000
     17 O17        109.7200 255.1035 344.2015 O.2            1 RES1               0.0000
     18 H18        115.7516 254.7435 343.2237 H              1 RES1               0.0000
     19 H19        115.0806 253.2975 343.9991 H              1 RES1               0.0000
     20 H20        113.0906 257.6144 344.8952 H              1 RES1               0.0000
     21 H21        116.2082 254.7741 345.6386 H              1 RES1               0.0000
     22 H22        111.1265 253.9047 345.8370 H              1 RES1               0.0000
     23 H23        111.1588 256.3178 342.5698 H              1 RES1               0.0000
     24 H24        114.9875 253.1060 341.5351 H              1 RES1               0.0000
     25 H25        113.3584 253.1414 342.2055 H              1 RES1               0.0000
     26 H26        114.0254 254.5789 341.4348 H              1 RES1               0.0000
     27 H27        114.1997 259.2098 346.3950 H              1 RES1               0.0000
     28 H28        117.3027 256.3800 347.1324 H              1 RES1               0.0000
     29 H29        116.3073 258.6011 347.5195 H              1 RES1               0.0000
@<TRIPOS>BOND
    1    1    2 1     
    2    1    3 1     
    3    1    4 1     
    4    1    5 1     
    5    2    6 ar    
    6    2    7 ar    
    7    3    8 1     
    8    3    9 2     
    9    4   10 1     
   10    4   11 2     
   11    5   12 1     
   12    5   18 1     
   13    5   19 1     
   14    6   13 ar    
   15    6   20 1     
   16    7   14 ar    
   17    7   21 1     
   18    8   15 1     
   19    8   22 1     
   20   10   15 1     
   21   10   23 1     
   22   12   24 1     
   23   12   25 1     
   24   12   26 1     
   25   13   16 ar    
   26   13   27 1     
   27   14   16 ar    
   28   14   28 1     
   29   15   17 2     
   30   16   29 1     
@<TRIPOS>SUBSTRUCTURE
      1 RES1           1
@<TRIPOS>SET
DONOR_HYDROGENS      STATIC     ATOMS    <user>   **** ""
2 22 23
ATOM$RED        STATIC     ATOMS    COLORGROUP SYSTEM
2 22 23
@<TRIPOS>COMMENT
> <Gold.Version>
2022.3.0

> <Gold.Id.Protein>
unknown|5adg_clean|pdb

> <Gold.Protein.RotatedTorsions>
[ 1111 1100 1101 1102 ] final  166.28 input   86.23 | X-H torsion
[ 1141 1124 1125 1126 ] final -124.95 input   63.27 | X-H torsion
[ 1161 1154 1155 1156 ] final  142.78 input  128.69 | X-H torsion
[ 1181 1170 1171 1172 ] final   18.76 input   75.71 | X-H torsion
[ 1185 1175 1174 1171 ] final -119.54 input   60.03 | X-H torsion
[ 1205 1194 1195 1196 ] final  -74.30 input   99.83 | X-H torsion
[ 1241 1232 1233 1234 ] final    3.71 input  109.94 | X-H torsion
[ 13453 13433 13432 13430 ] final  167.61 input   60.02 | X-H torsion
[ 11610 11589 11588 11586 ] final  -22.70 input   59.96 | X-H torsion
[ 11931 11915 11916 11917 ] final   67.99 input  122.96 | X-H torsion
[ 13465 1067 1066 1065 ] final  103.75 input   -0.00 | X-H torsion
[ 13468 1103 1102 1101 ] final -173.99 input   -0.00 | X-H torsion
[ 13471 1127 1126 1125 ] final   95.76 input   -0.00 | X-H torsion
[ 13476 1157 1156 1155 ] final -120.21 input    0.00 | X-H torsion
[ 13479 1173 1172 1171 ] final  116.59 input    0.00 | X-H torsion
[ 13484 1197 1196 1195 ] final -169.94 input   -0.00 | X-H torsion

> <Gold.Protein.ActiveResidues>
 VAL308  THR329  CYS331  ILE335  CYS336  MET337  GLY338  SER339  ILE340  MET341 
 PRO343  SER418  ARG419  ARG423  PHE663  TYR671  CYS677  PRO678  ALA679  ASP680 
 TRP681  VAL682  TRP683  ILE684  VAL685  VAL695  GLN698  GLU699  MET700  LEU701 
 ASN702  TYR703  H4B760 

> <Gold.Protein.RotatedAtoms>
  110.6522  261.5931  345.2604 H   0  0  0  0  0  0  0  0  0  0  0  0  # atno 1111 bound_to 1100
  110.0587  259.4155  342.4746 H   0  0  0  0  0  0  0  0  0  0  0  0  # atno 1141 bound_to 1124
  111.9311  257.9178  341.1967 H   0  0  0  0  0  0  0  0  0  0  0  0  # atno 1161 bound_to 1154
  110.5533  255.2762  340.0572 H   0  0  0  0  0  0  0  0  0  0  0  0  # atno 1181 bound_to 1170
  109.9469  252.8754  342.6884 H   0  0  0  0  0  0  0  0  0  0  0  0  # atno 1185 bound_to 1175
  109.3965  253.3893  338.7190 H   0  0  0  0  0  0  0  0  0  0  0  0  # atno 1205 bound_to 1194
  107.2390  253.9945  335.5242 H   0  0  0  0  0  0  0  0  0  0  0  0  # atno 1241 bound_to 1232
  102.9938  253.8194  346.4596 H   0  0  0  0  0  0  0  0  0  0  0  0  # atno 11610 bound_to 11589
  117.7489  251.9210  337.7214 H   0  0  0  0  0  0  0  0  0  0  0  0  # atno 11931 bound_to 11915
  109.9107  250.4912  338.1456 H   0  0  0  0  0  0  0  0  0  0  0  0  # atno 13453 bound_to 13433
  110.6688  263.2993  343.0465 LP  0  0  0  0  0  0  0  0  0  0  0  0  # atno 13465 bound_to 1067
  109.1231  262.7769  342.4652 LP  0  0  0  0  0  0  0  0  0  0  0  0  # atno 13466 bound_to 1067
  109.2180  260.9621  344.4893 LP  0  0  0  0  0  0  0  0  0  0  0  0  # atno 13467 bound_to 1100
  108.8922  257.9166  342.9545 LP  0  0  0  0  0  0  0  0  0  0  0  0  # atno 13468 bound_to 1103
  109.2896  258.7499  344.4200 LP  0  0  0  0  0  0  0  0  0  0  0  0  # atno 13469 bound_to 1103
  110.9507  259.9575  341.0713 LP  0  0  0  0  0  0  0  0  0  0  0  0  # atno 13470 bound_to 1124
  110.3443  257.3984  337.9566 LP  0  0  0  0  0  0  0  0  0  0  0  0  # atno 13471 bound_to 1127
  109.5679  256.1244  338.8364 LP  0  0  0  0  0  0  0  0  0  0  0  0  # atno 13472 bound_to 1127
  110.7059  257.2624  340.1316 LP  0  0  0  0  0  0  0  0  0  0  0  0  # atno 13475 bound_to 1154
  112.3053  254.1621  337.7146 LP  0  0  0  0  0  0  0  0  0  0  0  0  # atno 13476 bound_to 1157
  113.7861  254.2592  338.6079 LP  0  0  0  0  0  0  0  0  0  0  0  0  # atno 13477 bound_to 1157
  112.1509  254.6436  340.3569 LP  0  0  0  0  0  0  0  0  0  0  0  0  # atno 13478 bound_to 1170
  107.9408  251.9082  339.0507 LP  0  0  0  0  0  0  0  0  0  0  0  0  # atno 13479 bound_to 1173
  109.3054  251.3353  338.1509 LP  0  0  0  0  0  0  0  0  0  0  0  0  # atno 13480 bound_to 1173
  108.9107  251.9093  341.8886 LP  0  0  0  0  0  0  0  0  0  0  0  0  # atno 13481 bound_to 1175
  109.1241  253.4561  341.4107 LP  0  0  0  0  0  0  0  0  0  0  0  0  # atno 13482 bound_to 1175
  109.3932  255.1335  338.7982 LP  0  0  0  0  0  0  0  0  0  0  0  0  # atno 13483 bound_to 1194
  109.5612  254.4704  334.6681 LP  0  0  0  0  0  0  0  0  0  0  0  0  # atno 13484 bound_to 1197
  109.9208  255.1283  336.2294 LP  0  0  0  0  0  0  0  0  0  0  0  0  # atno 13485 bound_to 1197
  107.7513  252.4770  336.2094 LP  0  0  0  0  0  0  0  0  0  0  0  0  # atno 13504 bound_to 1232
  109.5975  250.1031  336.5966 LP  0  0  0  0  0  0  0  0  0  0  0  0  # atno 13509 bound_to 13433
  111.0946  249.8817  337.2102 LP  0  0  0  0  0  0  0  0  0  0  0  0  # atno 13510 bound_to 13433

> <Gold.Score>
     Fitness  S(hb_ext) S(vdw_ext)  S(hb_int)    S(int)      intcor
     15.57       2.14      12.27       0.00      -3.44      -0.78

> <Gold.Goldscore.Fitness>
15.5708

> <Gold.Goldscore.Internal.Vdw>
-2.7776

> <Gold.Goldscore.Internal.Torsion>
-1.4455

> <Gold.Goldscore.External.Vdw>
12.2701

> <Gold.Goldscore.Internal.HBond>
0.0000

> <Gold.Goldscore.External.HBond>
2.1407

> <Gold.Goldscore.Internal.Correction>
-0.7819

> <Gold.Goldscore.Hbonds>
donor molecule, donor type, donor heavy atom, donor atom, acceptor molecule, acceptor atom, score
      P1  H 11908 11922       L1     9  0.17
      L1  H     8    22       P1 11819  0.90

> <Gold.Goldscore.Internal.Vdw.Weighted>
-2.7776

> <Gold.Goldscore.Internal.Torsion.Weighted>
-1.4455

> <Gold.Goldscore.External.Vdw.Weighted>
16.8714

> <Gold.Goldscore.Internal.HBond.Weighted>
0.0000

> <Gold.Goldscore.External.HBond.Weighted>
2.1407

> <Gold.Goldscore.Internal.Correction.Weighted>
-0.7819

> <Gold.Rescore>
     Score     S(PLP)   S(hbond)     S(cho)   S(metal)  DE(clash)   DE(tors)     intcor
    -16.71      19.68       2.05       0.00       0.00       2.13       0.53       ----

> <Gold.PLP.Fitness>
-16.7148

> <Gold.PLP.PLP>
19.6772

> <Gold.PLP.part.hbond>
-5.6215

> <Gold.PLP.part.metal>
0.0000

> <Gold.PLP.part.buried>
35.6436

> <Gold.PLP.part.nonpolar>
-23.0572

> <Gold.PLP.part.repulsive>
11.0560

> <Gold.PLP.ligand.clash>
2.1255

> <Gold.PLP.ligand.torsion>
0.5282

> <Gold.PLP.Chemscore.Hbond>
2.0481

> <Gold.PLP.Chemscore.CHOScore>
0.0000

> <Gold.PLP.Chemscore.Metal>
0.0000

> <Gold.Chemscore.Hbonds>
donor molecule, donor type, donor heavy atom, donor atom, acceptor molecule, acceptor atom, score
      L1  H     8    22       P1 11819  1.00
      P1  H  1154  1161       L1    11  0.02
      P1  H 11908 11922       L1     9  0.69

> <Gold.PLP.Chemscore.Internal.Correction>
   9.000000E+99

#       Name:                CT1002167954
#       Creating user name   hitesit
#       Creation time:       Sun Apr 16 22:52:05 2023


#       File generated by GOLD software.
#

@<TRIPOS>MOLECULE
CT1002167954|ligand_prepared|mol2|1|dock7
    29    30     1
SMALL
NO_CHARGES


@<TRIPOS>ATOM
      1 C1         113.9479 255.3474 344.2977 C.3            1 RES1               0.0000
      2 C2         114.7002 256.2790 345.2699 C.ar           1 RES1               0.0000
      3 C3         112.8947 254.6210 345.1292 C.2            1 RES1               0.0000
      4 C4         113.3706 256.2443 343.2083 C.2            1 RES1               0.0000
      5 C5         114.8514 254.2920 343.6186 C.3            1 RES1               0.0000
      6 C6         115.8688 255.8553 345.8957 C.ar           1 RES1               0.0000
      7 C7         114.2402 257.5633 345.5482 C.ar           1 RES1               0.0000
      8 N8         111.5944 255.0020 344.9744 N.am           1 RES1               0.0000
      9 O9         113.2046 253.7543 345.9373 O.2            1 RES1               0.0000
     10 N10        112.0072 256.3494 343.1187 N.am           1 RES1               0.0000
     11 O11        114.0842 256.8740 342.4372 O.2            1 RES1               0.0000
     12 C12        114.2451 253.6812 342.3650 C.3            1 RES1               0.0000
     13 C13        116.5544 256.6865 346.7660 C.ar           1 RES1               0.0000
     14 C14        114.9272 258.3928 346.4191 C.ar           1 RES1               0.0000
     15 C15        111.0936 255.7931 343.9719 C.2            1 RES1               0.0000
     16 C16        116.0844 257.9558 347.0279 C.ar           1 RES1               0.0000
     17 O17        109.8852 255.9779 343.8585 O.2            1 RES1               0.0000
     18 H18        115.8072 254.7619 343.3558 H              1 RES1               0.0000
     19 H19        115.0588 253.4896 344.3375 H              1 RES1               0.0000
     20 H20        116.2526 254.8589 345.7037 H              1 RES1               0.0000
     21 H21        113.3315 257.9279 345.0816 H              1 RES1               0.0000
     22 H22        110.9332 254.6679 345.6684 H              1 RES1               0.0000
     23 H23        111.6394 256.8927 342.3442 H              1 RES1               0.0000
     24 H24        114.9196 252.9476 341.9284 H              1 RES1               0.0000
     25 H25        113.3053 253.1833 342.5943 H              1 RES1               0.0000
     26 H26        114.0492 254.4480 341.6184 H              1 RES1               0.0000
     27 H27        117.4639 256.3374 347.2437 H              1 RES1               0.0000
     28 H28        114.5534 259.3908 346.6228 H              1 RES1               0.0000
     29 H29        116.6219 258.6069 347.7094 H              1 RES1               0.0000
@<TRIPOS>BOND
    1    1    2 1     
    2    1    3 1     
    3    1    4 1     
    4    1    5 1     
    5    2    6 ar    
    6    2    7 ar    
    7    3    8 1     
    8    3    9 2     
    9    4   10 1     
   10    4   11 2     
   11    5   12 1     
   12    5   18 1     
   13    5   19 1     
   14    6   13 ar    
   15    6   20 1     
   16    7   14 ar    
   17    7   21 1     
   18    8   15 1     
   19    8   22 1     
   20   10   15 1     
   21   10   23 1     
   22   12   24 1     
   23   12   25 1     
   24   12   26 1     
   25   13   16 ar    
   26   13   27 1     
   27   14   16 ar    
   28   14   28 1     
   29   15   17 2     
   30   16   29 1     
@<TRIPOS>SUBSTRUCTURE
      1 RES1           1
@<TRIPOS>SET
DONOR_HYDROGENS      STATIC     ATOMS    <user>   **** ""
2 22 23
ATOM$RED        STATIC     ATOMS    COLORGROUP SYSTEM
2 22 23
@<TRIPOS>COMMENT
> <Gold.Version>
2022.3.0

> <Gold.Id.Protein>
unknown|5adg_clean|pdb

> <Gold.Protein.RotatedTorsions>
[ 1111 1100 1101 1102 ] final  -50.19 input   86.23 | X-H torsion
[ 1141 1124 1125 1126 ] final  -30.73 input   63.27 | X-H torsion
[ 1161 1154 1155 1156 ] final  127.88 input  128.69 | X-H torsion
[ 1181 1170 1171 1172 ] final   22.98 input   75.71 | X-H torsion
[ 1185 1175 1174 1171 ] final  -31.82 input   60.03 | X-H torsion
[ 1205 1194 1195 1196 ] final   23.23 input   99.83 | X-H torsion
[ 1241 1232 1233 1234 ] final  -16.36 input  109.94 | X-H torsion
[ 13453 13433 13432 13430 ] final  -69.91 input   60.02 | X-H torsion
[ 11610 11589 11588 11586 ] final  -15.01 input   59.96 | X-H torsion
[ 11931 11915 11916 11917 ] final -167.50 input  122.96 | X-H torsion
[ 13465 1067 1066 1065 ] final  171.23 input   -0.00 | X-H torsion
[ 13468 1103 1102 1101 ] final  149.20 input   -0.00 | X-H torsion
[ 13471 1127 1126 1125 ] final   73.79 input   -0.00 | X-H torsion
[ 13476 1157 1156 1155 ] final  105.40 input    0.00 | X-H torsion
[ 13479 1173 1172 1171 ] final   56.45 input    0.00 | X-H torsion
[ 13484 1197 1196 1195 ] final  -65.90 input   -0.00 | X-H torsion

> <Gold.Protein.ActiveResidues>
 VAL308  THR329  CYS331  ILE335  CYS336  MET337  GLY338  SER339  ILE340  MET341 
 PRO343  SER418  ARG419  ARG423  PHE663  TYR671  CYS677  PRO678  ALA679  ASP680 
 TRP681  VAL682  TRP683  ILE684  VAL685  VAL695  GLN698  GLU699  MET700  LEU701 
 ASN702  TYR703  H4B760 

> <Gold.Protein.RotatedAtoms>
  109.3235  261.4435  344.2528 H   0  0  0  0  0  0  0  0  0  0  0  0  # atno 1111 bound_to 1100
  111.1583  259.0919  341.8619 H   0  0  0  0  0  0  0  0  0  0  0  0  # atno 1141 bound_to 1124
  111.8654  257.7421  341.3312 H   0  0  0  0  0  0  0  0  0  0  0  0  # atno 1161 bound_to 1154
  110.5395  255.2640  340.1193 H   0  0  0  0  0  0  0  0  0  0  0  0  # atno 1181 bound_to 1170
  109.4768  253.6376  341.7507 H   0  0  0  0  0  0  0  0  0  0  0  0  # atno 1185 bound_to 1175
  109.9471  254.4158  338.0890 H   0  0  0  0  0  0  0  0  0  0  0  0  # atno 1205 bound_to 1194
  107.5207  254.0686  335.6128 H   0  0  0  0  0  0  0  0  0  0  0  0  # atno 1241 bound_to 1232
  103.0054  253.7099  346.3994 H   0  0  0  0  0  0  0  0  0  0  0  0  # atno 11610 bound_to 11589
  117.9415  251.7674  339.2738 H   0  0  0  0  0  0  0  0  0  0  0  0  # atno 11931 bound_to 11915
  111.0791  249.8717  337.1732 H   0  0  0  0  0  0  0  0  0  0  0  0  # atno 13453 bound_to 13433
  110.5301  262.4830  342.5567 LP  0  0  0  0  0  0  0  0  0  0  0  0  # atno 13465 bound_to 1067
  109.2617  263.5932  342.9549 LP  0  0  0  0  0  0  0  0  0  0  0  0  # atno 13466 bound_to 1067
  110.5219  261.1089  345.4781 LP  0  0  0  0  0  0  0  0  0  0  0  0  # atno 13467 bound_to 1100
  108.5417  258.3316  343.0176 LP  0  0  0  0  0  0  0  0  0  0  0  0  # atno 13468 bound_to 1103
  109.6401  258.3350  344.3569 LP  0  0  0  0  0  0  0  0  0  0  0  0  # atno 13469 bound_to 1103
  109.8823  260.2719  341.6667 LP  0  0  0  0  0  0  0  0  0  0  0  0  # atno 13470 bound_to 1124
  110.0419  257.5246  337.9962 LP  0  0  0  0  0  0  0  0  0  0  0  0  # atno 13471 bound_to 1127
  109.8703  255.9982  338.7967 LP  0  0  0  0  0  0  0  0  0  0  0  0  # atno 13472 bound_to 1127
  110.7694  257.4322  340.0017 LP  0  0  0  0  0  0  0  0  0  0  0  0  # atno 13475 bound_to 1154
  113.4350  253.7037  338.7456 LP  0  0  0  0  0  0  0  0  0  0  0  0  # atno 13476 bound_to 1157
  112.6564  254.7176  337.5769 LP  0  0  0  0  0  0  0  0  0  0  0  0  # atno 13477 bound_to 1157
  112.1646  254.6557  340.2956 LP  0  0  0  0  0  0  0  0  0  0  0  0  # atno 13478 bound_to 1170
  108.5771  251.4768  339.4534 LP  0  0  0  0  0  0  0  0  0  0  0  0  # atno 13479 bound_to 1173
  108.6691  251.7667  337.7483 LP  0  0  0  0  0  0  0  0  0  0  0  0  # atno 13480 bound_to 1173
  109.7879  252.3800  342.7347 LP  0  0  0  0  0  0  0  0  0  0  0  0  # atno 13481 bound_to 1175
  108.7206  252.2175  341.5095 LP  0  0  0  0  0  0  0  0  0  0  0  0  # atno 13482 bound_to 1175
  108.8520  254.1244  339.4174 LP  0  0  0  0  0  0  0  0  0  0  0  0  # atno 13483 bound_to 1194
  109.3164  255.5541  335.4617 LP  0  0  0  0  0  0  0  0  0  0  0  0  # atno 13484 bound_to 1197
  110.1655  254.0446  335.4359 LP  0  0  0  0  0  0  0  0  0  0  0  0  # atno 13485 bound_to 1197
  107.4711  252.4033  336.1213 LP  0  0  0  0  0  0  0  0  0  0  0  0  # atno 13504 bound_to 1232
  109.9470  250.4901  338.1652 LP  0  0  0  0  0  0  0  0  0  0  0  0  # atno 13509 bound_to 13433
  109.5685  250.1185  336.6207 LP  0  0  0  0  0  0  0  0  0  0  0  0  # atno 13510 bound_to 13433

> <Gold.Score>
     Fitness  S(hb_ext) S(vdw_ext)  S(hb_int)    S(int)      intcor
     12.20       2.07       8.08       0.00      -0.98      -0.77

> <Gold.Goldscore.Fitness>
12.2037

> <Gold.Goldscore.Internal.Vdw>
-0.8787

> <Gold.Goldscore.Internal.Torsion>
-0.8704

> <Gold.Goldscore.External.Vdw>
8.0838

> <Gold.Goldscore.Internal.HBond>
0.0000

> <Gold.Goldscore.External.HBond>
2.0723

> <Gold.Goldscore.Internal.Correction>
-0.7653

> <Gold.Goldscore.Hbonds>
donor molecule, donor type, donor heavy atom, donor atom, acceptor molecule, acceptor atom, score
      P1  H 11908 11922       L1     9  0.04
      L1  H     8    22       P1 11819  1.00

> <Gold.Goldscore.Internal.Vdw.Weighted>
-0.8787

> <Gold.Goldscore.Internal.Torsion.Weighted>
-0.8704

> <Gold.Goldscore.External.Vdw.Weighted>
11.1152

> <Gold.Goldscore.Internal.HBond.Weighted>
0.0000

> <Gold.Goldscore.External.HBond.Weighted>
2.0723

> <Gold.Goldscore.Internal.Correction.Weighted>
-0.7653

> <Gold.Rescore>
     Score     S(PLP)   S(hbond)     S(cho)   S(metal)  DE(clash)   DE(tors)     intcor
    -17.08      18.28       1.26       0.00       0.00       0.00       1.30       ----

> <Gold.PLP.Fitness>
-17.0800

> <Gold.PLP.PLP>
18.2770

> <Gold.PLP.part.hbond>
-5.7660

> <Gold.PLP.part.metal>
0.0000

> <Gold.PLP.part.buried>
37.6198

> <Gold.PLP.part.nonpolar>
-23.3010

> <Gold.PLP.part.repulsive>
11.3558

> <Gold.PLP.ligand.clash>
0.0000

> <Gold.PLP.ligand.torsion>
1.2951

> <Gold.PLP.Chemscore.Hbond>
1.2624

> <Gold.PLP.Chemscore.CHOScore>
0.0000

> <Gold.PLP.Chemscore.Metal>
0.0000

> <Gold.Chemscore.Hbonds>
donor molecule, donor type, donor heavy atom, donor atom, acceptor molecule, acceptor atom, score
      L1  H     8    22       P1 11819  0.93
      P1  H 11860 11888       L1     9  0.05
      P1  H 12542 12564       L1    17  0.05

> <Gold.PLP.Chemscore.Internal.Correction>
   9.000000E+99

#       Name:                CT1002167954
#       Creating user name   hitesit
#       Creation time:       Sun Apr 16 22:52:07 2023


#       File generated by GOLD software.
#

@<TRIPOS>MOLECULE
CT1002167954|ligand_prepared|mol2|1|dock10
    29    30     1
SMALL
NO_CHARGES


@<TRIPOS>ATOM
      1 C1         113.2030 255.1110 343.4406 C.3            1 RES1               0.0000
      2 C2         114.1130 255.1914 342.1979 C.ar           1 RES1               0.0000
      3 C3         114.0977 254.6814 344.5997 C.2            1 RES1               0.0000
      4 C4         112.5881 256.4959 343.6095 C.2            1 RES1               0.0000
      5 C5         112.0499 254.0894 343.3055 C.3            1 RES1               0.0000
      6 C6         114.7098 256.3946 341.8334 C.ar           1 RES1               0.0000
      7 C7         114.3668 254.0724 341.4093 C.ar           1 RES1               0.0000
      8 N8         114.4288 255.6261 345.5259 N.am           1 RES1               0.0000
      9 O9         114.5382 253.5413 344.6783 O.2            1 RES1               0.0000
     10 N10        112.9292 257.2185 344.7227 N.am           1 RES1               0.0000
     11 O11        111.8242 256.9746 342.7803 O.2            1 RES1               0.0000
     12 C12        110.9215 254.3033 344.3020 C.3            1 RES1               0.0000
     13 C13        115.5328 256.4757 340.7224 C.ar           1 RES1               0.0000
     14 C14        115.1900 254.1557 340.2985 C.ar           1 RES1               0.0000
     15 C15        113.8455 256.8589 345.6731 C.2            1 RES1               0.0000
     16 C16        115.7738 255.3564 339.9545 C.ar           1 RES1               0.0000
     17 O17        114.1391 257.5868 346.6170 O.2            1 RES1               0.0000
     18 H18        111.6404 254.1515 342.2897 H              1 RES1               0.0000
     19 H19        112.4552 253.0793 343.4425 H              1 RES1               0.0000
     20 H20        114.5298 257.2866 342.4241 H              1 RES1               0.0000
     21 H21        113.9174 253.1176 341.6603 H              1 RES1               0.0000
     22 H22        115.1796 255.3944 346.1686 H              1 RES1               0.0000
     23 H23        112.4561 258.1067 344.8552 H              1 RES1               0.0000
     24 H24        110.1389 253.5601 344.1640 H              1 RES1               0.0000
     25 H25        111.2883 254.2233 345.3232 H              1 RES1               0.0000
     26 H26        110.4784 255.2892 344.1773 H              1 RES1               0.0000
     27 H27        115.9888 257.4233 340.4551 H              1 RES1               0.0000
     28 H28        115.3764 253.2724 339.6967 H              1 RES1               0.0000
     29 H29        116.4189 255.4200 339.0844 H              1 RES1               0.0000
@<TRIPOS>BOND
    1    1    2 1     
    2    1    3 1     
    3    1    4 1     
    4    1    5 1     
    5    2    6 ar    
    6    2    7 ar    
    7    3    8 1     
    8    3    9 2     
    9    4   10 1     
   10    4   11 2     
   11    5   12 1     
   12    5   18 1     
   13    5   19 1     
   14    6   13 ar    
   15    6   20 1     
   16    7   14 ar    
   17    7   21 1     
   18    8   15 1     
   19    8   22 1     
   20   10   15 1     
   21   10   23 1     
   22   12   24 1     
   23   12   25 1     
   24   12   26 1     
   25   13   16 ar    
   26   13   27 1     
   27   14   16 ar    
   28   14   28 1     
   29   15   17 2     
   30   16   29 1     
@<TRIPOS>SUBSTRUCTURE
      1 RES1           1
@<TRIPOS>SET
DONOR_HYDROGENS      STATIC     ATOMS    <user>   **** ""
2 22 23
ATOM$RED        STATIC     ATOMS    COLORGROUP SYSTEM
2 22 23
@<TRIPOS>COMMENT
> <Gold.Version>
2022.3.0

> <Gold.Id.Protein>
unknown|5adg_clean|pdb

> <Gold.Protein.RotatedTorsions>
[ 1111 1100 1101 1102 ] final  -59.41 input   86.23 | X-H torsion
[ 1141 1124 1125 1126 ] final  131.27 input   63.27 | X-H torsion
[ 1161 1154 1155 1156 ] final  -81.42 input  128.69 | X-H torsion
[ 1181 1170 1171 1172 ] final -124.95 input   75.71 | X-H torsion
[ 1185 1175 1174 1171 ] final   54.73 input   60.03 | X-H torsion
[ 1205 1194 1195 1196 ] final  -94.81 input   99.83 | X-H torsion
[ 1241 1232 1233 1234 ] final  171.87 input  109.94 | X-H torsion
[ 13453 13433 13432 13430 ] final -117.74 input   60.02 | X-H torsion
[ 11610 11589 11588 11586 ] final -164.76 input   59.96 | X-H torsion
[ 11931 11915 11916 11917 ] final  164.96 input  122.96 | X-H torsion
[ 13465 1067 1066 1065 ] final -108.34 input   -0.00 | X-H torsion
[ 13468 1103 1102 1101 ] final   72.70 input   -0.00 | X-H torsion
[ 13471 1127 1126 1125 ] final   61.12 input   -0.00 | X-H torsion
[ 13476 1157 1156 1155 ] final -173.36 input    0.00 | X-H torsion
[ 13479 1173 1172 1171 ] final  154.23 input    0.00 | X-H torsion
[ 13484 1197 1196 1195 ] final  103.82 input   -0.00 | X-H torsion

> <Gold.Protein.ActiveResidues>
 VAL308  THR329  CYS331  ILE335  CYS336  MET337  GLY338  SER339  ILE340  MET341 
 PRO343  SER418  ARG419  ARG423  PHE663  TYR671  CYS677  PRO678  ALA679  ASP680 
 TRP681  VAL682  TRP683  ILE684  VAL685  VAL695  GLN698  GLU699  MET700  LEU701 
 ASN702  TYR703  H4B760 

> <Gold.Protein.RotatedAtoms>
  109.3955  261.5636  344.2313 H   0  0  0  0  0  0  0  0  0  0  0  0  # atno 1111 bound_to 1100
  110.0127  260.3476  341.4366 H   0  0  0  0  0  0  0  0  0  0  0  0  # atno 1141 bound_to 1124
  110.9967  257.7799  339.8442 H   0  0  0  0  0  0  0  0  0  0  0  0  # atno 1161 bound_to 1154
  112.1368  254.8030  339.8376 H   0  0  0  0  0  0  0  0  0  0  0  0  # atno 1181 bound_to 1170
  108.7283  252.7074  341.2812 H   0  0  0  0  0  0  0  0  0  0  0  0  # atno 1185 bound_to 1175
  109.2021  253.4338  338.9609 H   0  0  0  0  0  0  0  0  0  0  0  0  # atno 1205 bound_to 1194
  107.5805  252.4235  336.1822 H   0  0  0  0  0  0  0  0  0  0  0  0  # atno 1241 bound_to 1232
  101.9577  254.8104  345.4205 H   0  0  0  0  0  0  0  0  0  0  0  0  # atno 11610 bound_to 11589
  117.7085  252.0364  339.0456 H   0  0  0  0  0  0  0  0  0  0  0  0  # atno 11931 bound_to 11915
  110.9510  250.1236  337.8776 H   0  0  0  0  0  0  0  0  0  0  0  0  # atno 13453 bound_to 13433
  109.4355  262.4401  342.3311 LP  0  0  0  0  0  0  0  0  0  0  0  0  # atno 13465 bound_to 1067
  110.3563  263.6361  343.1806 LP  0  0  0  0  0  0  0  0  0  0  0  0  # atno 13466 bound_to 1067
  110.4512  260.9911  345.4991 LP  0  0  0  0  0  0  0  0  0  0  0  0  # atno 13467 bound_to 1100
  108.5715  259.0069  343.8500 LP  0  0  0  0  0  0  0  0  0  0  0  0  # atno 13468 bound_to 1103
  109.6103  257.6597  343.5245 LP  0  0  0  0  0  0  0  0  0  0  0  0  # atno 13469 bound_to 1103
  110.9954  259.0518  342.0799 LP  0  0  0  0  0  0  0  0  0  0  0  0  # atno 13470 bound_to 1124
  109.8589  257.5474  338.0463 LP  0  0  0  0  0  0  0  0  0  0  0  0  # atno 13471 bound_to 1127
  110.0533  255.9753  338.7467 LP  0  0  0  0  0  0  0  0  0  0  0  0  # atno 13472 bound_to 1127
  111.6089  257.3956  341.4388 LP  0  0  0  0  0  0  0  0  0  0  0  0  # atno 13475 bound_to 1154
  112.4577  253.5759  338.1978 LP  0  0  0  0  0  0  0  0  0  0  0  0  # atno 13476 bound_to 1157
  113.6337  254.8454  338.1247 LP  0  0  0  0  0  0  0  0  0  0  0  0  # atno 13477 bound_to 1157
  110.5860  255.1112  340.5740 LP  0  0  0  0  0  0  0  0  0  0  0  0  # atno 13478 bound_to 1170
  107.8760  252.0511  338.5144 LP  0  0  0  0  0  0  0  0  0  0  0  0  # atno 13479 bound_to 1173
  109.3702  251.1924  338.6873 LP  0  0  0  0  0  0  0  0  0  0  0  0  # atno 13480 bound_to 1173
  109.7912  253.5481  342.1812 LP  0  0  0  0  0  0  0  0  0  0  0  0  # atno 13481 bound_to 1175
  109.4714  251.9866  342.5362 LP  0  0  0  0  0  0  0  0  0  0  0  0  # atno 13482 bound_to 1175
  109.5843  255.0898  338.5604 LP  0  0  0  0  0  0  0  0  0  0  0  0  # atno 13483 bound_to 1194
  110.2107  254.0836  335.5791 LP  0  0  0  0  0  0  0  0  0  0  0  0  # atno 13484 bound_to 1197
  109.2712  255.5151  335.3184 LP  0  0  0  0  0  0  0  0  0  0  0  0  # atno 13485 bound_to 1197
  107.4116  254.0398  335.5549 LP  0  0  0  0  0  0  0  0  0  0  0  0  # atno 13504 bound_to 1232
  109.3810  250.4871  337.6516 LP  0  0  0  0  0  0  0  0  0  0  0  0  # atno 13509 bound_to 13433
  110.2635  249.8678  336.4251 LP  0  0  0  0  0  0  0  0  0  0  0  0  # atno 13510 bound_to 13433

> <Gold.Score>
     Fitness  S(hb_ext) S(vdw_ext)  S(hb_int)    S(int)      intcor
      1.84       0.65       1.64       0.00      -1.06      -0.77

> <Gold.Goldscore.Fitness>
1.8350

> <Gold.Goldscore.Internal.Vdw>
-0.9749

> <Gold.Goldscore.Internal.Torsion>
-0.8529

> <Gold.Goldscore.External.Vdw>
1.6357

> <Gold.Goldscore.Internal.HBond>
0.0000

> <Gold.Goldscore.External.HBond>
0.6483

> <Gold.Goldscore.Internal.Correction>
-0.7653

> <Gold.Goldscore.Hbonds>
donor molecule, donor type, donor heavy atom, donor atom, acceptor molecule, acceptor atom, score
      P1  H 11908 11922       L1     9  0.29
      L1  H     8    22       P1 11842  0.01

> <Gold.Goldscore.Internal.Vdw.Weighted>
-0.9749

> <Gold.Goldscore.Internal.Torsion.Weighted>
-0.8529

> <Gold.Goldscore.External.Vdw.Weighted>
2.2491

> <Gold.Goldscore.Internal.HBond.Weighted>
0.0000

> <Gold.Goldscore.External.HBond.Weighted>
0.6483

> <Gold.Goldscore.Internal.Correction.Weighted>
-0.7653

> <Gold.Rescore>
     Score     S(PLP)   S(hbond)     S(cho)   S(metal)  DE(clash)   DE(tors)     intcor
      1.85       3.06       2.48       0.00       0.00       0.98       0.78       ----

> <Gold.PLP.Fitness>
1.8469

> <Gold.PLP.PLP>
3.0569

> <Gold.PLP.part.hbond>
-4.7684

> <Gold.PLP.part.metal>
0.0000

> <Gold.PLP.part.buried>
24.4441

> <Gold.PLP.part.nonpolar>
-22.9793

> <Gold.PLP.part.repulsive>
3.5064

> <Gold.PLP.ligand.clash>
0.9752

> <Gold.PLP.ligand.torsion>
0.7805

> <Gold.PLP.Chemscore.Hbond>
2.4800

> <Gold.PLP.Chemscore.CHOScore>
0.0000

> <Gold.PLP.Chemscore.Metal>
0.0000

> <Gold.Chemscore.Hbonds>
donor molecule, donor type, donor heavy atom, donor atom, acceptor molecule, acceptor atom, score
      L1  H     8    22       P1 11842  0.04
      P1  H 11908 11922       L1     9  1.00

> <Gold.PLP.Chemscore.Internal.Correction>
   9.000000E+99

#       Name:                CT1002167954
#       Creating user name   hitesit
#       Creation time:       Sun Apr 16 22:52:02 2023


#       File generated by GOLD software.
#

@<TRIPOS>MOLECULE
CT1002167954|ligand_prepared|mol2|1|dock4
    29    30     1
SMALL
NO_CHARGES


@<TRIPOS>ATOM
      1 C1         113.5345 254.9857 343.8527 C.3            1 RES1               0.0000
      2 C2         114.5522 254.9106 342.6962 C.ar           1 RES1               0.0000
      3 C3         114.2927 254.5915 345.1169 C.2            1 RES1               0.0000
      4 C4         113.0067 256.4161 343.8644 C.2            1 RES1               0.0000
      5 C5         112.3281 254.0326 343.6863 C.3            1 RES1               0.0000
      6 C6         115.9150 255.0493 342.9414 C.ar           1 RES1               0.0000
      7 C7         114.1442 254.7009 341.3816 C.ar           1 RES1               0.0000
      8 N8         114.6083 255.5824 345.9992 N.am           1 RES1               0.0000
      9 O9         114.6431 253.4351 345.3174 O.2            1 RES1               0.0000
     10 N10        113.3003 257.2000 344.9493 N.am           1 RES1               0.0000
     11 O11        112.3533 256.8765 342.9363 O.2            1 RES1               0.0000
     12 C12        111.0482 254.7328 343.2575 C.3            1 RES1               0.0000
     13 C13        116.8369 254.9779 341.9103 C.ar           1 RES1               0.0000
     14 C14        115.0678 254.6301 340.3518 C.ar           1 RES1               0.0000
     15 C15        114.1030 256.8577 346.0031 C.2            1 RES1               0.0000
     16 C16        116.4141 254.7678 340.6150 C.ar           1 RES1               0.0000
     17 O17        114.3645 257.6368 346.9152 O.2            1 RES1               0.0000
     18 H18        112.5808 253.2702 342.9391 H              1 RES1               0.0000
     19 H19        112.1481 253.5209 344.6398 H              1 RES1               0.0000
     20 H20        116.2663 255.2176 343.9540 H              1 RES1               0.0000
     21 H21        113.0900 254.5908 341.1509 H              1 RES1               0.0000
     22 H22        115.2823 255.3541 346.7230 H              1 RES1               0.0000
     23 H23        112.8815 258.1243 344.9735 H              1 RES1               0.0000
     24 H24        110.2336 254.0188 343.1555 H              1 RES1               0.0000
     25 H25        110.7535 255.4807 343.9906 H              1 RES1               0.0000
     26 H26        111.1836 255.2315 342.3000 H              1 RES1               0.0000
     27 H27        117.8952 255.0883 342.1225 H              1 RES1               0.0000
     28 H28        114.7305 254.4653 339.3339 H              1 RES1               0.0000
     29 H29        117.1365 254.7116 339.8075 H              1 RES1               0.0000
@<TRIPOS>BOND
    1    1    2 1     
    2    1    3 1     
    3    1    4 1     
    4    1    5 1     
    5    2    6 ar    
    6    2    7 ar    
    7    3    8 1     
    8    3    9 2     
    9    4   10 1     
   10    4   11 2     
   11    5   12 1     
   12    5   18 1     
   13    5   19 1     
   14    6   13 ar    
   15    6   20 1     
   16    7   14 ar    
   17    7   21 1     
   18    8   15 1     
   19    8   22 1     
   20   10   15 1     
   21   10   23 1     
   22   12   24 1     
   23   12   25 1     
   24   12   26 1     
   25   13   16 ar    
   26   13   27 1     
   27   14   16 ar    
   28   14   28 1     
   29   15   17 2     
   30   16   29 1     
@<TRIPOS>SUBSTRUCTURE
      1 RES1           1
@<TRIPOS>SET
DONOR_HYDROGENS      STATIC     ATOMS    <user>   **** ""
2 22 23
ATOM$RED        STATIC     ATOMS    COLORGROUP SYSTEM
2 22 23
@<TRIPOS>COMMENT
> <Gold.Version>
2022.3.0

> <Gold.Id.Protein>
unknown|5adg_clean|pdb

> <Gold.Protein.RotatedTorsions>
[ 1111 1100 1101 1102 ] final   44.04 input   86.23 | X-H torsion
[ 1141 1124 1125 1126 ] final -178.61 input   63.27 | X-H torsion
[ 1161 1154 1155 1156 ] final  156.81 input  128.69 | X-H torsion
[ 1181 1170 1171 1172 ] final   -8.67 input   75.71 | X-H torsion
[ 1185 1175 1174 1171 ] final   79.71 input   60.03 | X-H torsion
[ 1205 1194 1195 1196 ] final  172.95 input   99.83 | X-H torsion
[ 1241 1232 1233 1234 ] final  143.69 input  109.94 | X-H torsion
[ 13453 13433 13432 13430 ] final -164.98 input   60.02 | X-H torsion
[ 11610 11589 11588 11586 ] final  -70.82 input   59.96 | X-H torsion
[ 11931 11915 11916 11917 ] final   75.15 input  122.96 | X-H torsion
[ 13465 1067 1066 1065 ] final   98.44 input   -0.00 | X-H torsion
[ 13468 1103 1102 1101 ] final  -73.13 input   -0.00 | X-H torsion
[ 13471 1127 1126 1125 ] final  -18.28 input   -0.00 | X-H torsion
[ 13476 1157 1156 1155 ] final   39.37 input    0.00 | X-H torsion
[ 13479 1173 1172 1171 ] final -116.72 input    0.00 | X-H torsion
[ 13484 1197 1196 1195 ] final  -66.09 input   -0.00 | X-H torsion

> <Gold.Protein.ActiveResidues>
 VAL308  THR329  CYS331  ILE335  CYS336  MET337  GLY338  SER339  ILE340  MET341 
 PRO343  SER418  ARG419  ARG423  PHE663  TYR671  CYS677  PRO678  ALA679  ASP680 
 TRP681  VAL682  TRP683  ILE684  VAL685  VAL695  GLN698  GLU699  MET700  LEU701 
 ASN702  TYR703  H4B760 

> <Gold.Protein.RotatedAtoms>
  109.5723  260.5017  345.1008 H   0  0  0  0  0  0  0  0  0  0  0  0  # atno 1111 bound_to 1100
  109.7425  260.0211  342.0572 H   0  0  0  0  0  0  0  0  0  0  0  0  # atno 1141 bound_to 1124
  111.9552  258.0626  341.0362 H   0  0  0  0  0  0  0  0  0  0  0  0  # atno 1161 bound_to 1154
  110.7441  255.3121  339.6895 H   0  0  0  0  0  0  0  0  0  0  0  0  # atno 1181 bound_to 1170
  108.7072  252.3332  341.4340 H   0  0  0  0  0  0  0  0  0  0  0  0  # atno 1185 bound_to 1175
  108.8852  254.5794  339.4064 H   0  0  0  0  0  0  0  0  0  0  0  0  # atno 1205 bound_to 1194
  107.1870  252.4315  336.0215 H   0  0  0  0  0  0  0  0  0  0  0  0  # atno 1241 bound_to 1232
  102.7239  254.5309  346.5196 H   0  0  0  0  0  0  0  0  0  0  0  0  # atno 11610 bound_to 11589
  117.6965  251.9876  337.7928 H   0  0  0  0  0  0  0  0  0  0  0  0  # atno 11931 bound_to 11915
  110.3382  250.3953  338.2148 H   0  0  0  0  0  0  0  0  0  0  0  0  # atno 13453 bound_to 13433
  110.6316  263.3638  343.0763 LP  0  0  0  0  0  0  0  0  0  0  0  0  # atno 13465 bound_to 1067
  109.1603  262.7124  342.4353 LP  0  0  0  0  0  0  0  0  0  0  0  0  # atno 13466 bound_to 1067
  110.2777  262.0331  344.6458 LP  0  0  0  0  0  0  0  0  0  0  0  0  # atno 13467 bound_to 1100
  109.7678  257.8678  343.9614 LP  0  0  0  0  0  0  0  0  0  0  0  0  # atno 13468 bound_to 1103
  108.4140  258.7987  343.4131 LP  0  0  0  0  0  0  0  0  0  0  0  0  # atno 13469 bound_to 1103
  111.2580  259.3690  341.4769 LP  0  0  0  0  0  0  0  0  0  0  0  0  # atno 13470 bound_to 1124
  109.1286  256.9227  338.5945 LP  0  0  0  0  0  0  0  0  0  0  0  0  # atno 13471 bound_to 1127
  110.7836  256.6000  338.1984 LP  0  0  0  0  0  0  0  0  0  0  0  0  # atno 13472 bound_to 1127
  110.6826  257.1224  340.2868 LP  0  0  0  0  0  0  0  0  0  0  0  0  # atno 13475 bound_to 1154
  113.8023  254.5201  338.4472 LP  0  0  0  0  0  0  0  0  0  0  0  0  # atno 13476 bound_to 1157
  112.2891  253.9012  337.8753 LP  0  0  0  0  0  0  0  0  0  0  0  0  # atno 13477 bound_to 1157
  111.9624  254.6082  340.7204 LP  0  0  0  0  0  0  0  0  0  0  0  0  # atno 13478 bound_to 1170
  108.7592  251.7165  337.7508 LP  0  0  0  0  0  0  0  0  0  0  0  0  # atno 13479 bound_to 1173
  108.4870  251.5270  339.4508 LP  0  0  0  0  0  0  0  0  0  0  0  0  # atno 13480 bound_to 1173
  109.5652  253.6491  341.8571 LP  0  0  0  0  0  0  0  0  0  0  0  0  # atno 13481 bound_to 1175
  109.7187  252.2627  342.7063 LP  0  0  0  0  0  0  0  0  0  0  0  0  # atno 13482 bound_to 1175
  109.8958  253.9637  338.1225 LP  0  0  0  0  0  0  0  0  0  0  0  0  # atno 13483 bound_to 1194
  109.3154  255.5536  335.4589 LP  0  0  0  0  0  0  0  0  0  0  0  0  # atno 13484 bound_to 1197
  110.1665  254.0452  335.4386 LP  0  0  0  0  0  0  0  0  0  0  0  0  # atno 13485 bound_to 1197
  107.8030  254.0318  335.7147 LP  0  0  0  0  0  0  0  0  0  0  0  0  # atno 13504 bound_to 1232
  109.3502  250.2728  336.9277 LP  0  0  0  0  0  0  0  0  0  0  0  0  # atno 13509 bound_to 13433
  110.9113  249.8086  336.8094 LP  0  0  0  0  0  0  0  0  0  0  0  0  # atno 13510 bound_to 13433

> <Gold.Score>
     Fitness  S(hb_ext) S(vdw_ext)  S(hb_int)    S(int)      intcor
    -25.07       1.71     -11.34       0.00     -11.20      -0.78

> <Gold.Goldscore.Fitness>
-25.0722

> <Gold.Goldscore.Internal.Vdw>
-9.6379

> <Gold.Goldscore.Internal.Torsion>
-2.3427

> <Gold.Goldscore.External.Vdw>
-11.3354

> <Gold.Goldscore.Internal.HBond>
0.0000

> <Gold.Goldscore.External.HBond>
1.7127

> <Gold.Goldscore.Internal.Correction>
-0.7819

> <Gold.Goldscore.Hbonds>
donor molecule, donor type, donor heavy atom, donor atom, acceptor molecule, acceptor atom, score
      P1  H 11908 11922       L1     9  0.79
      P1  H 12548 12569       L1    17  0.07

> <Gold.Goldscore.Internal.Vdw.Weighted>
-9.6379

> <Gold.Goldscore.Internal.Torsion.Weighted>
-2.3427

> <Gold.Goldscore.External.Vdw.Weighted>
-15.5862

> <Gold.Goldscore.Internal.HBond.Weighted>
0.0000

> <Gold.Goldscore.External.HBond.Weighted>
1.7127

> <Gold.Goldscore.Internal.Correction.Weighted>
-0.7819

> <Gold.Rescore>
     Score     S(PLP)   S(hbond)     S(cho)   S(metal)  DE(clash)   DE(tors)     intcor
      5.53       2.62       3.32       0.00       0.00       1.42       0.20       ----

> <Gold.PLP.Fitness>
5.5275

> <Gold.PLP.PLP>
2.6190

> <Gold.PLP.part.hbond>
-4.4928

> <Gold.PLP.part.metal>
0.0000

> <Gold.PLP.part.buried>
24.3494

> <Gold.PLP.part.nonpolar>
-21.8420

> <Gold.PLP.part.repulsive>
3.0634

> <Gold.PLP.ligand.clash>
1.4158

> <Gold.PLP.ligand.torsion>
0.1989

> <Gold.PLP.Chemscore.Hbond>
3.3200

> <Gold.PLP.Chemscore.CHOScore>
0.0000

> <Gold.PLP.Chemscore.Metal>
0.0000

> <Gold.Chemscore.Hbonds>
donor molecule, donor type, donor heavy atom, donor atom, acceptor molecule, acceptor atom, score
      P1  H 11908 11922       L1     9  1.00

> <Gold.PLP.Chemscore.Internal.Correction>
   9.000000E+99

