#       Name:                GA Fitting Points
#       Creating user name   hitesit
#       Creation time:       Sun Apr 16 22:51:55 2023


#       Fitting Points Used by GA Software.
#

@<TRIPOS>MOLECULE
GA Fitting Points
  3789    0    0
SMALL
NO_CHARGES


@<TRIPOS>ATOM
      1 ****       110.0000 254.5000 344.0000 Du        
      2 ****       110.0000 254.5000 344.2500 Du        
      3 ****       110.0000 254.5000 344.5000 Du        
      4 ****       110.0000 254.7500 343.7500 Du        
      5 ****       110.0000 254.7500 344.0000 Du        
      6 ****       110.0000 254.7500 344.2500 Du        
      7 ****       110.0000 254.7500 344.5000 Du        
      8 ****       110.0000 255.0000 343.5000 Du        
      9 ****       110.0000 255.0000 343.7500 Du        
     10 ****       110.0000 255.0000 344.0000 Du        
     11 ****       110.0000 255.0000 344.2500 Du        
     12 ****       110.0000 255.0000 344.5000 Du        
     13 ****       110.0000 255.2500 343.2500 Du        
     14 ****       110.0000 255.2500 343.5000 Du        
     15 ****       110.0000 255.2500 343.7500 Du        
     16 ****       110.0000 255.2500 344.0000 Du        
     17 ****       110.0000 255.2500 344.2500 Du        
     18 ****       110.0000 255.5000 343.2500 Du        
     19 ****       110.0000 255.5000 343.5000 Du        
     20 ****       110.0000 255.5000 343.7500 Du        
     21 ****       110.0000 255.5000 344.0000 Du        
     22 ****       110.0000 255.7500 343.2500 Du        
     23 ****       110.0000 255.7500 343.5000 Du        
     24 ****       110.0000 255.7500 343.7500 Du        
     25 ****       110.2500 254.2500 344.0000 Du        
     26 ****       110.2500 254.2500 344.2500 Du        
     27 ****       110.2500 254.2500 344.5000 Du        
     28 ****       110.2500 254.5000 343.7500 Du        
     29 ****       110.2500 254.5000 344.0000 Du        
     30 ****       110.2500 254.5000 344.2500 Du        
     31 ****       110.2500 254.5000 344.5000 Du        
     32 ****       110.2500 254.7500 343.5000 Du        
     33 ****       110.2500 254.7500 343.7500 Du        
     34 ****       110.2500 254.7500 344.0000 Du        
     35 ****       110.2500 254.7500 344.2500 Du        
     36 ****       110.2500 254.7500 344.5000 Du        
     37 ****       110.2500 255.0000 343.2500 Du        
     38 ****       110.2500 255.0000 343.5000 Du        
     39 ****       110.2500 255.0000 343.7500 Du        
     40 ****       110.2500 255.0000 344.0000 Du        
     41 ****       110.2500 255.0000 344.2500 Du        
     42 ****       110.2500 255.0000 344.5000 Du        
     43 ****       110.2500 255.2500 343.2500 Du        
     44 ****       110.2500 255.2500 343.5000 Du        
     45 ****       110.2500 255.2500 343.7500 Du        
     46 ****       110.2500 255.2500 344.0000 Du        
     47 ****       110.2500 255.2500 344.2500 Du        
     48 ****       110.2500 255.5000 343.2500 Du        
     49 ****       110.2500 255.5000 343.5000 Du        
     50 ****       110.2500 255.5000 343.7500 Du        
     51 ****       110.2500 255.5000 344.0000 Du        
     52 ****       110.2500 255.5000 344.2500 Du        
     53 ****       110.2500 255.7500 343.2500 Du        
     54 ****       110.2500 255.7500 343.5000 Du        
     55 ****       110.2500 255.7500 343.7500 Du        
     56 ****       110.2500 255.7500 344.0000 Du        
     57 ****       110.2500 256.0000 343.2500 Du        
     58 ****       110.2500 256.0000 343.5000 Du        
     59 ****       110.2500 256.0000 343.7500 Du        
     60 ****       110.5000 254.2500 343.7500 Du        
     61 ****       110.5000 254.2500 344.0000 Du        
     62 ****       110.5000 254.2500 344.2500 Du        
     63 ****       110.5000 254.2500 344.5000 Du        
     64 ****       110.5000 254.5000 343.5000 Du        
     65 ****       110.5000 254.5000 343.7500 Du        
     66 ****       110.5000 254.5000 344.0000 Du        
     67 ****       110.5000 254.5000 344.2500 Du        
     68 ****       110.5000 254.5000 344.5000 Du        
     69 ****       110.5000 254.7500 343.5000 Du        
     70 ****       110.5000 254.7500 343.7500 Du        
     71 ****       110.5000 254.7500 344.0000 Du        
     72 ****       110.5000 254.7500 344.2500 Du        
     73 ****       110.5000 254.7500 344.5000 Du        
     74 ****       110.5000 255.0000 343.2500 Du        
     75 ****       110.5000 255.0000 343.5000 Du        
     76 ****       110.5000 255.0000 343.7500 Du        
     77 ****       110.5000 255.0000 344.0000 Du        
     78 ****       110.5000 255.0000 344.2500 Du        
     79 ****       110.5000 255.0000 344.5000 Du        
     80 ****       110.5000 255.2500 343.2500 Du        
     81 ****       110.5000 255.2500 343.5000 Du        
     82 ****       110.5000 255.2500 343.7500 Du        
     83 ****       110.5000 255.2500 344.0000 Du        
     84 ****       110.5000 255.2500 344.2500 Du        
     85 ****       110.5000 255.5000 343.2500 Du        
     86 ****       110.5000 255.5000 343.5000 Du        
     87 ****       110.5000 255.5000 343.7500 Du        
     88 ****       110.5000 255.5000 344.0000 Du        
     89 ****       110.5000 255.5000 344.2500 Du        
     90 ****       110.5000 255.7500 343.2500 Du        
     91 ****       110.5000 255.7500 343.5000 Du        
     92 ****       110.5000 255.7500 343.7500 Du        
     93 ****       110.5000 255.7500 344.0000 Du        
     94 ****       110.5000 256.0000 343.2500 Du        
     95 ****       110.5000 256.0000 343.5000 Du        
     96 ****       110.5000 256.0000 343.7500 Du        
     97 ****       110.5000 256.0000 344.0000 Du        
     98 ****       110.7500 254.0000 344.0000 Du        
     99 ****       110.7500 254.2500 343.5000 Du        
    100 ****       110.7500 254.2500 343.7500 Du        
    101 ****       110.7500 254.2500 344.0000 Du        
    102 ****       110.7500 254.2500 344.2500 Du        
    103 ****       110.7500 254.2500 344.5000 Du        
    104 ****       110.7500 254.5000 343.5000 Du        
    105 ****       110.7500 254.5000 343.7500 Du        
    106 ****       110.7500 254.5000 344.0000 Du        
    107 ****       110.7500 254.5000 344.2500 Du        
    108 ****       110.7500 254.5000 344.5000 Du        
    109 ****       110.7500 254.7500 343.2500 Du        
    110 ****       110.7500 254.7500 343.5000 Du        
    111 ****       110.7500 254.7500 343.7500 Du        
    112 ****       110.7500 254.7500 344.0000 Du        
    113 ****       110.7500 254.7500 344.2500 Du        
    114 ****       110.7500 254.7500 344.5000 Du        
    115 ****       110.7500 255.0000 343.2500 Du        
    116 ****       110.7500 255.0000 343.5000 Du        
    117 ****       110.7500 255.0000 343.7500 Du        
    118 ****       110.7500 255.0000 344.0000 Du        
    119 ****       110.7500 255.0000 344.2500 Du        
    120 ****       110.7500 255.0000 344.5000 Du        
    121 ****       110.7500 255.2500 343.2500 Du        
    122 ****       110.7500 255.2500 343.5000 Du        
    123 ****       110.7500 255.2500 343.7500 Du        
    124 ****       110.7500 255.2500 344.0000 Du        
    125 ****       110.7500 255.2500 344.2500 Du        
    126 ****       110.7500 255.5000 343.2500 Du        
    127 ****       110.7500 255.5000 343.5000 Du        
    128 ****       110.7500 255.5000 343.7500 Du        
    129 ****       110.7500 255.5000 344.0000 Du        
    130 ****       110.7500 255.5000 344.2500 Du        
    131 ****       110.7500 255.7500 343.2500 Du        
    132 ****       110.7500 255.7500 343.5000 Du        
    133 ****       110.7500 255.7500 343.7500 Du        
    134 ****       110.7500 255.7500 344.0000 Du        
    135 ****       110.7500 256.0000 343.2500 Du        
    136 ****       110.7500 256.0000 343.5000 Du        
    137 ****       110.7500 256.0000 343.7500 Du        
    138 ****       110.7500 256.0000 344.0000 Du        
    139 ****       110.7500 256.2500 343.5000 Du        
    140 ****       110.7500 256.2500 343.7500 Du        
    141 ****       111.0000 254.0000 343.7500 Du        
    142 ****       111.0000 254.0000 344.0000 Du        
    143 ****       111.0000 254.2500 343.5000 Du        
    144 ****       111.0000 254.2500 343.7500 Du        
    145 ****       111.0000 254.2500 344.0000 Du        
    146 ****       111.0000 254.2500 344.2500 Du        
    147 ****       111.0000 254.5000 343.5000 Du        
    148 ****       111.0000 254.5000 343.7500 Du        
    149 ****       111.0000 254.5000 344.0000 Du        
    150 ****       111.0000 254.5000 344.2500 Du        
    151 ****       111.0000 254.5000 344.5000 Du        
    152 ****       111.0000 254.7500 343.2500 Du        
    153 ****       111.0000 254.7500 343.5000 Du        
    154 ****       111.0000 254.7500 343.7500 Du        
    155 ****       111.0000 254.7500 344.0000 Du        
    156 ****       111.0000 254.7500 344.2500 Du        
    157 ****       111.0000 254.7500 344.5000 Du        
    158 ****       111.0000 255.0000 343.2500 Du        
    159 ****       111.0000 255.0000 343.5000 Du        
    160 ****       111.0000 255.0000 343.7500 Du        
    161 ****       111.0000 255.0000 344.0000 Du        
    162 ****       111.0000 255.0000 344.2500 Du        
    163 ****       111.0000 255.0000 344.5000 Du        
    164 ****       111.0000 255.2500 343.2500 Du        
    165 ****       111.0000 255.2500 343.5000 Du        
    166 ****       111.0000 255.2500 343.7500 Du        
    167 ****       111.0000 255.2500 344.0000 Du        
    168 ****       111.0000 255.2500 344.2500 Du        
    169 ****       111.0000 255.5000 343.2500 Du        
    170 ****       111.0000 255.5000 343.5000 Du        
    171 ****       111.0000 255.5000 343.7500 Du        
    172 ****       111.0000 255.5000 344.0000 Du        
    173 ****       111.0000 255.5000 344.2500 Du        
    174 ****       111.0000 255.7500 343.2500 Du        
    175 ****       111.0000 255.7500 343.5000 Du        
    176 ****       111.0000 255.7500 343.7500 Du        
    177 ****       111.0000 255.7500 344.0000 Du        
    178 ****       111.0000 255.7500 344.2500 Du        
    179 ****       111.0000 256.0000 343.2500 Du        
    180 ****       111.0000 256.0000 343.5000 Du        
    181 ****       111.0000 256.0000 343.7500 Du        
    182 ****       111.0000 256.0000 344.0000 Du        
    183 ****       111.0000 256.2500 343.5000 Du        
    184 ****       111.0000 256.2500 343.7500 Du        
    185 ****       111.2500 254.0000 343.7500 Du        
    186 ****       111.2500 254.2500 343.5000 Du        
    187 ****       111.2500 254.2500 343.7500 Du        
    188 ****       111.2500 254.2500 344.0000 Du        
    189 ****       111.2500 254.2500 344.2500 Du        
    190 ****       111.2500 254.5000 343.2500 Du        
    191 ****       111.2500 254.5000 343.5000 Du        
    192 ****       111.2500 254.5000 343.7500 Du        
    193 ****       111.2500 254.5000 344.0000 Du        
    194 ****       111.2500 254.5000 344.2500 Du        
    195 ****       111.2500 254.5000 344.5000 Du        
    196 ****       111.2500 254.7500 343.2500 Du        
    197 ****       111.2500 254.7500 343.5000 Du        
    198 ****       111.2500 254.7500 343.7500 Du        
    199 ****       111.2500 254.7500 344.0000 Du        
    200 ****       111.2500 254.7500 344.2500 Du        
    201 ****       111.2500 254.7500 344.5000 Du        
    202 ****       111.2500 255.0000 343.2500 Du        
    203 ****       111.2500 255.0000 343.5000 Du        
    204 ****       111.2500 255.0000 343.7500 Du        
    205 ****       111.2500 255.0000 344.0000 Du        
    206 ****       111.2500 255.0000 344.2500 Du        
    207 ****       111.2500 255.0000 344.5000 Du        
    208 ****       111.2500 255.2500 343.2500 Du        
    209 ****       111.2500 255.2500 343.5000 Du        
    210 ****       111.2500 255.2500 343.7500 Du        
    211 ****       111.2500 255.2500 344.0000 Du        
    212 ****       111.2500 255.2500 344.2500 Du        
    213 ****       111.2500 255.2500 344.5000 Du        
    214 ****       111.2500 255.5000 343.2500 Du        
    215 ****       111.2500 255.5000 343.5000 Du        
    216 ****       111.2500 255.5000 343.7500 Du        
    217 ****       111.2500 255.5000 344.0000 Du        
    218 ****       111.2500 255.5000 344.2500 Du        
    219 ****       111.2500 255.7500 343.2500 Du        
    220 ****       111.2500 255.7500 343.5000 Du        
    221 ****       111.2500 255.7500 343.7500 Du        
    222 ****       111.2500 255.7500 344.0000 Du        
    223 ****       111.2500 255.7500 344.2500 Du        
    224 ****       111.2500 256.0000 343.2500 Du        
    225 ****       111.2500 256.0000 343.5000 Du        
    226 ****       111.2500 256.0000 343.7500 Du        
    227 ****       111.2500 256.0000 344.0000 Du        
    228 ****       111.2500 256.2500 343.7500 Du        
    229 ****       111.2500 256.5000 336.0000 Du        
    230 ****       111.2500 256.5000 336.2500 Du        
    231 ****       111.2500 256.7500 336.0000 Du        
    232 ****       111.2500 256.7500 336.2500 Du        
    233 ****       111.2500 257.0000 336.2500 Du        
    234 ****       111.2500 258.5000 336.7500 Du        
    235 ****       111.2500 258.7500 336.7500 Du        
    236 ****       111.2500 258.7500 337.0000 Du        
    237 ****       111.2500 259.0000 337.0000 Du        
    238 ****       111.2500 259.0000 337.2500 Du        
    239 ****       111.5000 254.0000 343.7500 Du        
    240 ****       111.5000 254.2500 343.5000 Du        
    241 ****       111.5000 254.2500 343.7500 Du        
    242 ****       111.5000 254.2500 344.0000 Du        
    243 ****       111.5000 254.5000 343.2500 Du        
    244 ****       111.5000 254.5000 343.5000 Du        
    245 ****       111.5000 254.5000 343.7500 Du        
    246 ****       111.5000 254.5000 344.0000 Du        
    247 ****       111.5000 254.5000 344.2500 Du        
    248 ****       111.5000 254.5000 344.5000 Du        
    249 ****       111.5000 254.7500 343.2500 Du        
    250 ****       111.5000 254.7500 343.5000 Du        
    251 ****       111.5000 254.7500 343.7500 Du        
    252 ****       111.5000 254.7500 344.0000 Du        
    253 ****       111.5000 254.7500 344.2500 Du        
    254 ****       111.5000 254.7500 344.5000 Du        
    255 ****       111.5000 255.0000 343.2500 Du        
    256 ****       111.5000 255.0000 343.5000 Du        
    257 ****       111.5000 255.0000 343.7500 Du        
    258 ****       111.5000 255.0000 344.0000 Du        
    259 ****       111.5000 255.0000 344.2500 Du        
    260 ****       111.5000 255.0000 344.5000 Du        
    261 ****       111.5000 255.2500 343.2500 Du        
    262 ****       111.5000 255.2500 343.5000 Du        
    263 ****       111.5000 255.2500 343.7500 Du        
    264 ****       111.5000 255.2500 344.0000 Du        
    265 ****       111.5000 255.2500 344.2500 Du        
    266 ****       111.5000 255.2500 344.5000 Du        
    267 ****       111.5000 255.5000 343.2500 Du        
    268 ****       111.5000 255.5000 343.5000 Du        
    269 ****       111.5000 255.5000 343.7500 Du        
    270 ****       111.5000 255.5000 344.0000 Du        
    271 ****       111.5000 255.5000 344.2500 Du        
    272 ****       111.5000 255.7500 343.2500 Du        
    273 ****       111.5000 255.7500 343.5000 Du        
    274 ****       111.5000 255.7500 343.7500 Du        
    275 ****       111.5000 255.7500 344.0000 Du        
    276 ****       111.5000 255.7500 344.2500 Du        
    277 ****       111.5000 256.0000 343.5000 Du        
    278 ****       111.5000 256.0000 343.7500 Du        
    279 ****       111.5000 256.0000 344.0000 Du        
    280 ****       111.5000 256.2500 336.0000 Du        
    281 ****       111.5000 256.2500 336.2500 Du        
    282 ****       111.5000 256.2500 343.7500 Du        
    283 ****       111.5000 256.5000 335.7500 Du        
    284 ****       111.5000 256.5000 336.0000 Du        
    285 ****       111.5000 256.5000 336.2500 Du        
    286 ****       111.5000 256.7500 335.7500 Du        
    287 ****       111.5000 256.7500 336.0000 Du        
    288 ****       111.5000 256.7500 336.2500 Du        
    289 ****       111.5000 257.0000 336.0000 Du        
    290 ****       111.5000 257.0000 336.2500 Du        
    291 ****       111.5000 257.2500 336.2500 Du        
    292 ****       111.5000 257.2500 336.5000 Du        
    293 ****       111.5000 257.5000 336.2500 Du        
    294 ****       111.5000 257.5000 336.5000 Du        
    295 ****       111.5000 257.7500 336.5000 Du        
    296 ****       111.5000 258.0000 336.5000 Du        
    297 ****       111.5000 258.2500 336.5000 Du        
    298 ****       111.5000 258.2500 336.7500 Du        
    299 ****       111.5000 258.5000 336.5000 Du        
    300 ****       111.5000 258.5000 336.7500 Du        
    301 ****       111.5000 258.5000 337.0000 Du        
    302 ****       111.5000 258.7500 336.7500 Du        
    303 ****       111.5000 258.7500 337.0000 Du        
    304 ****       111.5000 258.7500 337.2500 Du        
    305 ****       111.5000 259.0000 336.7500 Du        
    306 ****       111.5000 259.0000 337.0000 Du        
    307 ****       111.5000 259.0000 337.2500 Du        
    308 ****       111.7500 254.0000 343.5000 Du        
    309 ****       111.7500 254.2500 343.2500 Du        
    310 ****       111.7500 254.2500 343.5000 Du        
    311 ****       111.7500 254.2500 343.7500 Du        
    312 ****       111.7500 254.2500 344.0000 Du        
    313 ****       111.7500 254.5000 343.2500 Du        
    314 ****       111.7500 254.5000 343.5000 Du        
    315 ****       111.7500 254.5000 343.7500 Du        
    316 ****       111.7500 254.5000 344.0000 Du        
    317 ****       111.7500 254.5000 344.2500 Du        
    318 ****       111.7500 254.5000 344.5000 Du        
    319 ****       111.7500 254.7500 343.2500 Du        
    320 ****       111.7500 254.7500 343.5000 Du        
    321 ****       111.7500 254.7500 343.7500 Du        
    322 ****       111.7500 254.7500 344.0000 Du        
    323 ****       111.7500 254.7500 344.2500 Du        
    324 ****       111.7500 254.7500 344.5000 Du        
    325 ****       111.7500 255.0000 343.2500 Du        
    326 ****       111.7500 255.0000 343.5000 Du        
    327 ****       111.7500 255.0000 343.7500 Du        
    328 ****       111.7500 255.0000 344.0000 Du        
    329 ****       111.7500 255.0000 344.2500 Du        
    330 ****       111.7500 255.0000 344.5000 Du        
    331 ****       111.7500 255.2500 343.2500 Du        
    332 ****       111.7500 255.2500 343.5000 Du        
    333 ****       111.7500 255.2500 343.7500 Du        
    334 ****       111.7500 255.2500 344.0000 Du        
    335 ****       111.7500 255.2500 344.2500 Du        
    336 ****       111.7500 255.2500 344.5000 Du        
    337 ****       111.7500 255.5000 343.2500 Du        
    338 ****       111.7500 255.5000 343.5000 Du        
    339 ****       111.7500 255.5000 343.7500 Du        
    340 ****       111.7500 255.5000 344.0000 Du        
    341 ****       111.7500 255.5000 344.2500 Du        
    342 ****       111.7500 255.7500 343.2500 Du        
    343 ****       111.7500 255.7500 343.5000 Du        
    344 ****       111.7500 255.7500 343.7500 Du        
    345 ****       111.7500 255.7500 344.0000 Du        
    346 ****       111.7500 255.7500 344.2500 Du        
    347 ****       111.7500 256.0000 336.0000 Du        
    348 ****       111.7500 256.0000 336.2500 Du        
    349 ****       111.7500 256.0000 343.5000 Du        
    350 ****       111.7500 256.0000 343.7500 Du        
    351 ****       111.7500 256.0000 344.0000 Du        
    352 ****       111.7500 256.0000 344.2500 Du        
    353 ****       111.7500 256.2500 335.7500 Du        
    354 ****       111.7500 256.2500 336.0000 Du        
    355 ****       111.7500 256.2500 336.2500 Du        
    356 ****       111.7500 256.5000 335.2500 Du        
    357 ****       111.7500 256.5000 335.5000 Du        
    358 ****       111.7500 256.5000 335.7500 Du        
    359 ****       111.7500 256.5000 336.0000 Du        
    360 ****       111.7500 256.5000 336.2500 Du        
    361 ****       111.7500 256.7500 335.2500 Du        
    362 ****       111.7500 256.7500 335.5000 Du        
    363 ****       111.7500 256.7500 335.7500 Du        
    364 ****       111.7500 256.7500 336.0000 Du        
    365 ****       111.7500 256.7500 336.2500 Du        
    366 ****       111.7500 256.7500 336.5000 Du        
    367 ****       111.7500 257.0000 335.5000 Du        
    368 ****       111.7500 257.0000 335.7500 Du        
    369 ****       111.7500 257.0000 336.0000 Du        
    370 ****       111.7500 257.0000 336.2500 Du        
    371 ****       111.7500 257.0000 336.5000 Du        
    372 ****       111.7500 257.2500 335.7500 Du        
    373 ****       111.7500 257.2500 336.0000 Du        
    374 ****       111.7500 257.2500 336.2500 Du        
    375 ****       111.7500 257.2500 336.5000 Du        
    376 ****       111.7500 257.5000 336.0000 Du        
    377 ****       111.7500 257.5000 336.2500 Du        
    378 ****       111.7500 257.5000 336.5000 Du        
    379 ****       111.7500 257.7500 336.0000 Du        
    380 ****       111.7500 257.7500 336.2500 Du        
    381 ****       111.7500 257.7500 336.5000 Du        
    382 ****       111.7500 258.0000 336.2500 Du        
    383 ****       111.7500 258.0000 336.5000 Du        
    384 ****       111.7500 258.0000 336.7500 Du        
    385 ****       111.7500 258.2500 336.2500 Du        
    386 ****       111.7500 258.2500 336.5000 Du        
    387 ****       111.7500 258.2500 336.7500 Du        
    388 ****       111.7500 258.2500 337.0000 Du        
    389 ****       111.7500 258.5000 336.2500 Du        
    390 ****       111.7500 258.5000 336.5000 Du        
    391 ****       111.7500 258.5000 336.7500 Du        
    392 ****       111.7500 258.5000 337.0000 Du        
    393 ****       111.7500 258.7500 336.5000 Du        
    394 ****       111.7500 258.7500 336.7500 Du        
    395 ****       111.7500 258.7500 337.0000 Du        
    396 ****       111.7500 258.7500 337.2500 Du        
    397 ****       111.7500 259.0000 336.7500 Du        
    398 ****       111.7500 259.0000 337.0000 Du        
    399 ****       111.7500 259.0000 337.2500 Du        
    400 ****       112.0000 254.0000 343.5000 Du        
    401 ****       112.0000 254.0000 343.7500 Du        
    402 ****       112.0000 254.2500 343.2500 Du        
    403 ****       112.0000 254.2500 343.5000 Du        
    404 ****       112.0000 254.2500 343.7500 Du        
    405 ****       112.0000 254.2500 344.0000 Du        
    406 ****       112.0000 254.5000 343.0000 Du        
    407 ****       112.0000 254.5000 343.2500 Du        
    408 ****       112.0000 254.5000 343.5000 Du        
    409 ****       112.0000 254.5000 343.7500 Du        
    410 ****       112.0000 254.5000 344.0000 Du        
    411 ****       112.0000 254.5000 344.2500 Du        
    412 ****       112.0000 254.5000 344.5000 Du        
    413 ****       112.0000 254.7500 343.0000 Du        
    414 ****       112.0000 254.7500 343.2500 Du        
    415 ****       112.0000 254.7500 343.5000 Du        
    416 ****       112.0000 254.7500 343.7500 Du        
    417 ****       112.0000 254.7500 344.0000 Du        
    418 ****       112.0000 254.7500 344.2500 Du        
    419 ****       112.0000 254.7500 344.5000 Du        
    420 ****       112.0000 254.7500 344.7500 Du        
    421 ****       112.0000 255.0000 343.0000 Du        
    422 ****       112.0000 255.0000 343.2500 Du        
    423 ****       112.0000 255.0000 343.5000 Du        
    424 ****       112.0000 255.0000 343.7500 Du        
    425 ****       112.0000 255.0000 344.0000 Du        
    426 ****       112.0000 255.0000 344.2500 Du        
    427 ****       112.0000 255.0000 344.5000 Du        
    428 ****       112.0000 255.0000 344.7500 Du        
    429 ****       112.0000 255.2500 343.0000 Du        
    430 ****       112.0000 255.2500 343.2500 Du        
    431 ****       112.0000 255.2500 343.5000 Du        
    432 ****       112.0000 255.2500 343.7500 Du        
    433 ****       112.0000 255.2500 344.0000 Du        
    434 ****       112.0000 255.2500 344.2500 Du        
    435 ****       112.0000 255.2500 344.5000 Du        
    436 ****       112.0000 255.5000 343.2500 Du        
    437 ****       112.0000 255.5000 343.5000 Du        
    438 ****       112.0000 255.5000 343.7500 Du        
    439 ****       112.0000 255.5000 344.0000 Du        
    440 ****       112.0000 255.5000 344.2500 Du        
    441 ****       112.0000 255.5000 344.5000 Du        
    442 ****       112.0000 255.7500 343.2500 Du        
    443 ****       112.0000 255.7500 343.5000 Du        
    444 ****       112.0000 255.7500 343.7500 Du        
    445 ****       112.0000 255.7500 344.0000 Du        
    446 ****       112.0000 255.7500 344.2500 Du        
    447 ****       112.0000 256.0000 336.0000 Du        
    448 ****       112.0000 256.0000 336.2500 Du        
    449 ****       112.0000 256.0000 343.5000 Du        
    450 ****       112.0000 256.0000 343.7500 Du        
    451 ****       112.0000 256.0000 344.0000 Du        
    452 ****       112.0000 256.0000 344.2500 Du        
    453 ****       112.0000 256.2500 335.5000 Du        
    454 ****       112.0000 256.2500 335.7500 Du        
    455 ****       112.0000 256.2500 336.0000 Du        
    456 ****       112.0000 256.2500 336.2500 Du        
    457 ****       112.0000 256.5000 335.2500 Du        
    458 ****       112.0000 256.5000 335.5000 Du        
    459 ****       112.0000 256.5000 335.7500 Du        
    460 ****       112.0000 256.5000 336.0000 Du        
    461 ****       112.0000 256.5000 336.2500 Du        
    462 ****       112.0000 256.7500 335.0000 Du        
    463 ****       112.0000 256.7500 335.2500 Du        
    464 ****       112.0000 256.7500 335.5000 Du        
    465 ****       112.0000 256.7500 335.7500 Du        
    466 ****       112.0000 256.7500 336.0000 Du        
    467 ****       112.0000 256.7500 336.2500 Du        
    468 ****       112.0000 256.7500 336.5000 Du        
    469 ****       112.0000 257.0000 335.0000 Du        
    470 ****       112.0000 257.0000 335.2500 Du        
    471 ****       112.0000 257.0000 335.5000 Du        
    472 ****       112.0000 257.0000 335.7500 Du        
    473 ****       112.0000 257.0000 336.0000 Du        
    474 ****       112.0000 257.0000 336.2500 Du        
    475 ****       112.0000 257.0000 336.5000 Du        
    476 ****       112.0000 257.2500 335.2500 Du        
    477 ****       112.0000 257.2500 335.5000 Du        
    478 ****       112.0000 257.2500 335.7500 Du        
    479 ****       112.0000 257.2500 336.0000 Du        
    480 ****       112.0000 257.2500 336.2500 Du        
    481 ****       112.0000 257.2500 336.5000 Du        
    482 ****       112.0000 257.5000 335.5000 Du        
    483 ****       112.0000 257.5000 335.7500 Du        
    484 ****       112.0000 257.5000 336.0000 Du        
    485 ****       112.0000 257.5000 336.2500 Du        
    486 ****       112.0000 257.5000 336.5000 Du        
    487 ****       112.0000 257.7500 335.7500 Du        
    488 ****       112.0000 257.7500 336.0000 Du        
    489 ****       112.0000 257.7500 336.2500 Du        
    490 ****       112.0000 257.7500 336.5000 Du        
    491 ****       112.0000 257.7500 336.7500 Du        
    492 ****       112.0000 258.0000 335.7500 Du        
    493 ****       112.0000 258.0000 336.0000 Du        
    494 ****       112.0000 258.0000 336.2500 Du        
    495 ****       112.0000 258.0000 336.5000 Du        
    496 ****       112.0000 258.0000 336.7500 Du        
    497 ****       112.0000 258.2500 336.0000 Du        
    498 ****       112.0000 258.2500 336.2500 Du        
    499 ****       112.0000 258.2500 336.5000 Du        
    500 ****       112.0000 258.2500 336.7500 Du        
    501 ****       112.0000 258.2500 337.0000 Du        
    502 ****       112.0000 258.5000 336.0000 Du        
    503 ****       112.0000 258.5000 336.2500 Du        
    504 ****       112.0000 258.5000 336.5000 Du        
    505 ****       112.0000 258.5000 336.7500 Du        
    506 ****       112.0000 258.5000 337.0000 Du        
    507 ****       112.0000 258.7500 336.2500 Du        
    508 ****       112.0000 258.7500 336.5000 Du        
    509 ****       112.0000 258.7500 336.7500 Du        
    510 ****       112.0000 258.7500 337.0000 Du        
    511 ****       112.0000 258.7500 337.2500 Du        
    512 ****       112.0000 259.0000 336.5000 Du        
    513 ****       112.0000 259.0000 336.7500 Du        
    514 ****       112.0000 259.0000 337.0000 Du        
    515 ****       112.0000 259.0000 337.2500 Du        
    516 ****       112.2500 254.0000 343.2500 Du        
    517 ****       112.2500 254.0000 343.5000 Du        
    518 ****       112.2500 254.0000 343.7500 Du        
    519 ****       112.2500 254.2500 343.0000 Du        
    520 ****       112.2500 254.2500 343.2500 Du        
    521 ****       112.2500 254.2500 343.5000 Du        
    522 ****       112.2500 254.2500 343.7500 Du        
    523 ****       112.2500 254.2500 344.0000 Du        
    524 ****       112.2500 254.5000 343.0000 Du        
    525 ****       112.2500 254.5000 343.2500 Du        
    526 ****       112.2500 254.5000 343.5000 Du        
    527 ****       112.2500 254.5000 343.7500 Du        
    528 ****       112.2500 254.5000 344.0000 Du        
    529 ****       112.2500 254.5000 344.2500 Du        
    530 ****       112.2500 254.5000 344.5000 Du        
    531 ****       112.2500 254.7500 343.0000 Du        
    532 ****       112.2500 254.7500 343.2500 Du        
    533 ****       112.2500 254.7500 343.5000 Du        
    534 ****       112.2500 254.7500 343.7500 Du        
    535 ****       112.2500 254.7500 344.0000 Du        
    536 ****       112.2500 254.7500 344.2500 Du        
    537 ****       112.2500 254.7500 344.5000 Du        
    538 ****       112.2500 254.7500 344.7500 Du        
    539 ****       112.2500 255.0000 343.0000 Du        
    540 ****       112.2500 255.0000 343.2500 Du        
    541 ****       112.2500 255.0000 343.5000 Du        
    542 ****       112.2500 255.0000 343.7500 Du        
    543 ****       112.2500 255.0000 344.0000 Du        
    544 ****       112.2500 255.0000 344.2500 Du        
    545 ****       112.2500 255.0000 344.5000 Du        
    546 ****       112.2500 255.0000 344.7500 Du        
    547 ****       112.2500 255.2500 343.0000 Du        
    548 ****       112.2500 255.2500 343.2500 Du        
    549 ****       112.2500 255.2500 343.5000 Du        
    550 ****       112.2500 255.2500 343.7500 Du        
    551 ****       112.2500 255.2500 344.0000 Du        
    552 ****       112.2500 255.2500 344.2500 Du        
    553 ****       112.2500 255.2500 344.5000 Du        
    554 ****       112.2500 255.2500 344.7500 Du        
    555 ****       112.2500 255.5000 343.0000 Du        
    556 ****       112.2500 255.5000 343.2500 Du        
    557 ****       112.2500 255.5000 343.5000 Du        
    558 ****       112.2500 255.5000 343.7500 Du        
    559 ****       112.2500 255.5000 344.0000 Du        
    560 ****       112.2500 255.5000 344.2500 Du        
    561 ****       112.2500 255.5000 344.5000 Du        
    562 ****       112.2500 255.7500 343.2500 Du        
    563 ****       112.2500 255.7500 343.5000 Du        
    564 ****       112.2500 255.7500 343.7500 Du        
    565 ****       112.2500 255.7500 344.0000 Du        
    566 ****       112.2500 255.7500 344.2500 Du        
    567 ****       112.2500 255.7500 344.5000 Du        
    568 ****       112.2500 256.0000 336.0000 Du        
    569 ****       112.2500 256.0000 336.2500 Du        
    570 ****       112.2500 256.0000 343.7500 Du        
    571 ****       112.2500 256.0000 344.0000 Du        
    572 ****       112.2500 256.0000 344.2500 Du        
    573 ****       112.2500 256.2500 335.5000 Du        
    574 ****       112.2500 256.2500 335.7500 Du        
    575 ****       112.2500 256.2500 336.0000 Du        
    576 ****       112.2500 256.2500 336.2500 Du        
    577 ****       112.2500 256.5000 335.2500 Du        
    578 ****       112.2500 256.5000 335.5000 Du        
    579 ****       112.2500 256.5000 335.7500 Du        
    580 ****       112.2500 256.5000 336.0000 Du        
    581 ****       112.2500 256.5000 336.2500 Du        
    582 ****       112.2500 256.7500 335.0000 Du        
    583 ****       112.2500 256.7500 335.2500 Du        
    584 ****       112.2500 256.7500 335.5000 Du        
    585 ****       112.2500 256.7500 335.7500 Du        
    586 ****       112.2500 256.7500 336.0000 Du        
    587 ****       112.2500 256.7500 336.2500 Du        
    588 ****       112.2500 257.0000 335.0000 Du        
    589 ****       112.2500 257.0000 335.2500 Du        
    590 ****       112.2500 257.0000 335.5000 Du        
    591 ****       112.2500 257.0000 335.7500 Du        
    592 ****       112.2500 257.0000 336.0000 Du        
    593 ****       112.2500 257.0000 336.2500 Du        
    594 ****       112.2500 257.0000 336.5000 Du        
    595 ****       112.2500 257.2500 335.0000 Du        
    596 ****       112.2500 257.2500 335.2500 Du        
    597 ****       112.2500 257.2500 335.5000 Du        
    598 ****       112.2500 257.2500 335.7500 Du        
    599 ****       112.2500 257.2500 336.0000 Du        
    600 ****       112.2500 257.2500 336.2500 Du        
    601 ****       112.2500 257.2500 336.5000 Du        
    602 ****       112.2500 257.5000 335.0000 Du        
    603 ****       112.2500 257.5000 335.2500 Du        
    604 ****       112.2500 257.5000 335.5000 Du        
    605 ****       112.2500 257.5000 335.7500 Du        
    606 ****       112.2500 257.5000 336.0000 Du        
    607 ****       112.2500 257.5000 336.2500 Du        
    608 ****       112.2500 257.5000 336.5000 Du        
    609 ****       112.2500 257.7500 335.2500 Du        
    610 ****       112.2500 257.7500 335.5000 Du        
    611 ****       112.2500 257.7500 335.7500 Du        
    612 ****       112.2500 257.7500 336.0000 Du        
    613 ****       112.2500 257.7500 336.2500 Du        
    614 ****       112.2500 257.7500 336.5000 Du        
    615 ****       112.2500 258.0000 335.2500 Du        
    616 ****       112.2500 258.0000 335.5000 Du        
    617 ****       112.2500 258.0000 335.7500 Du        
    618 ****       112.2500 258.0000 336.0000 Du        
    619 ****       112.2500 258.0000 336.2500 Du        
    620 ****       112.2500 258.0000 336.5000 Du        
    621 ****       112.2500 258.0000 336.7500 Du        
    622 ****       112.2500 258.2500 335.5000 Du        
    623 ****       112.2500 258.2500 335.7500 Du        
    624 ****       112.2500 258.2500 336.0000 Du        
    625 ****       112.2500 258.2500 336.2500 Du        
    626 ****       112.2500 258.2500 336.5000 Du        
    627 ****       112.2500 258.2500 336.7500 Du        
    628 ****       112.2500 258.2500 337.0000 Du        
    629 ****       112.2500 258.5000 335.7500 Du        
    630 ****       112.2500 258.5000 336.0000 Du        
    631 ****       112.2500 258.5000 336.2500 Du        
    632 ****       112.2500 258.5000 336.5000 Du        
    633 ****       112.2500 258.5000 336.7500 Du        
    634 ****       112.2500 258.5000 337.0000 Du        
    635 ****       112.2500 258.7500 336.0000 Du        
    636 ****       112.2500 258.7500 336.2500 Du        
    637 ****       112.2500 258.7500 336.5000 Du        
    638 ****       112.2500 258.7500 336.7500 Du        
    639 ****       112.2500 258.7500 337.0000 Du        
    640 ****       112.2500 258.7500 337.2500 Du        
    641 ****       112.2500 259.0000 336.5000 Du        
    642 ****       112.2500 259.0000 336.7500 Du        
    643 ****       112.2500 259.0000 337.0000 Du        
    644 ****       112.5000 254.0000 343.2500 Du        
    645 ****       112.5000 254.0000 343.5000 Du        
    646 ****       112.5000 254.0000 343.7500 Du        
    647 ****       112.5000 254.2500 343.0000 Du        
    648 ****       112.5000 254.2500 343.2500 Du        
    649 ****       112.5000 254.2500 343.5000 Du        
    650 ****       112.5000 254.2500 343.7500 Du        
    651 ****       112.5000 254.2500 344.0000 Du        
    652 ****       112.5000 254.2500 344.2500 Du        
    653 ****       112.5000 254.5000 343.0000 Du        
    654 ****       112.5000 254.5000 343.2500 Du        
    655 ****       112.5000 254.5000 343.5000 Du        
    656 ****       112.5000 254.5000 343.7500 Du        
    657 ****       112.5000 254.5000 344.0000 Du        
    658 ****       112.5000 254.5000 344.2500 Du        
    659 ****       112.5000 254.5000 344.5000 Du        
    660 ****       112.5000 254.7500 343.0000 Du        
    661 ****       112.5000 254.7500 343.2500 Du        
    662 ****       112.5000 254.7500 343.5000 Du        
    663 ****       112.5000 254.7500 343.7500 Du        
    664 ****       112.5000 254.7500 344.0000 Du        
    665 ****       112.5000 254.7500 344.2500 Du        
    666 ****       112.5000 254.7500 344.5000 Du        
    667 ****       112.5000 254.7500 344.7500 Du        
    668 ****       112.5000 255.0000 343.0000 Du        
    669 ****       112.5000 255.0000 343.2500 Du        
    670 ****       112.5000 255.0000 343.5000 Du        
    671 ****       112.5000 255.0000 343.7500 Du        
    672 ****       112.5000 255.0000 344.0000 Du        
    673 ****       112.5000 255.0000 344.2500 Du        
    674 ****       112.5000 255.0000 344.5000 Du        
    675 ****       112.5000 255.0000 344.7500 Du        
    676 ****       112.5000 255.2500 343.0000 Du        
    677 ****       112.5000 255.2500 343.2500 Du        
    678 ****       112.5000 255.2500 343.5000 Du        
    679 ****       112.5000 255.2500 343.7500 Du        
    680 ****       112.5000 255.2500 344.0000 Du        
    681 ****       112.5000 255.2500 344.2500 Du        
    682 ****       112.5000 255.2500 344.5000 Du        
    683 ****       112.5000 255.2500 344.7500 Du        
    684 ****       112.5000 255.5000 343.0000 Du        
    685 ****       112.5000 255.5000 343.2500 Du        
    686 ****       112.5000 255.5000 343.5000 Du        
    687 ****       112.5000 255.5000 343.7500 Du        
    688 ****       112.5000 255.5000 344.0000 Du        
    689 ****       112.5000 255.5000 344.2500 Du        
    690 ****       112.5000 255.5000 344.5000 Du        
    691 ****       112.5000 255.5000 344.7500 Du        
    692 ****       112.5000 255.7500 343.2500 Du        
    693 ****       112.5000 255.7500 343.5000 Du        
    694 ****       112.5000 255.7500 343.7500 Du        
    695 ****       112.5000 255.7500 344.0000 Du        
    696 ****       112.5000 255.7500 344.2500 Du        
    697 ****       112.5000 255.7500 344.5000 Du        
    698 ****       112.5000 255.7500 344.7500 Du        
    699 ****       112.5000 256.0000 336.0000 Du        
    700 ****       112.5000 256.0000 344.0000 Du        
    701 ****       112.5000 256.0000 344.2500 Du        
    702 ****       112.5000 256.2500 335.5000 Du        
    703 ****       112.5000 256.2500 335.7500 Du        
    704 ****       112.5000 256.2500 336.0000 Du        
    705 ****       112.5000 256.2500 336.2500 Du        
    706 ****       112.5000 256.5000 335.2500 Du        
    707 ****       112.5000 256.5000 335.5000 Du        
    708 ****       112.5000 256.5000 335.7500 Du        
    709 ****       112.5000 256.5000 336.0000 Du        
    710 ****       112.5000 256.5000 336.2500 Du        
    711 ****       112.5000 256.7500 335.0000 Du        
    712 ****       112.5000 256.7500 335.2500 Du        
    713 ****       112.5000 256.7500 335.5000 Du        
    714 ****       112.5000 256.7500 335.7500 Du        
    715 ****       112.5000 256.7500 336.0000 Du        
    716 ****       112.5000 256.7500 336.2500 Du        
    717 ****       112.5000 257.0000 335.0000 Du        
    718 ****       112.5000 257.0000 335.2500 Du        
    719 ****       112.5000 257.0000 335.5000 Du        
    720 ****       112.5000 257.0000 335.7500 Du        
    721 ****       112.5000 257.0000 336.0000 Du        
    722 ****       112.5000 257.0000 336.2500 Du        
    723 ****       112.5000 257.2500 335.0000 Du        
    724 ****       112.5000 257.2500 335.2500 Du        
    725 ****       112.5000 257.2500 335.5000 Du        
    726 ****       112.5000 257.2500 335.7500 Du        
    727 ****       112.5000 257.2500 336.0000 Du        
    728 ****       112.5000 257.2500 336.2500 Du        
    729 ****       112.5000 257.2500 336.5000 Du        
    730 ****       112.5000 257.5000 335.0000 Du        
    731 ****       112.5000 257.5000 335.2500 Du        
    732 ****       112.5000 257.5000 335.5000 Du        
    733 ****       112.5000 257.5000 335.7500 Du        
    734 ****       112.5000 257.5000 336.0000 Du        
    735 ****       112.5000 257.5000 336.2500 Du        
    736 ****       112.5000 257.5000 336.5000 Du        
    737 ****       112.5000 257.7500 335.0000 Du        
    738 ****       112.5000 257.7500 335.2500 Du        
    739 ****       112.5000 257.7500 335.5000 Du        
    740 ****       112.5000 257.7500 335.7500 Du        
    741 ****       112.5000 257.7500 336.0000 Du        
    742 ****       112.5000 257.7500 336.2500 Du        
    743 ****       112.5000 257.7500 336.5000 Du        
    744 ****       112.5000 258.0000 335.0000 Du        
    745 ****       112.5000 258.0000 335.2500 Du        
    746 ****       112.5000 258.0000 335.5000 Du        
    747 ****       112.5000 258.0000 335.7500 Du        
    748 ****       112.5000 258.0000 336.0000 Du        
    749 ****       112.5000 258.0000 336.2500 Du        
    750 ****       112.5000 258.0000 336.5000 Du        
    751 ****       112.5000 258.0000 336.7500 Du        
    752 ****       112.5000 258.2500 335.0000 Du        
    753 ****       112.5000 258.2500 335.2500 Du        
    754 ****       112.5000 258.2500 335.5000 Du        
    755 ****       112.5000 258.2500 335.7500 Du        
    756 ****       112.5000 258.2500 336.0000 Du        
    757 ****       112.5000 258.2500 336.2500 Du        
    758 ****       112.5000 258.2500 336.5000 Du        
    759 ****       112.5000 258.2500 336.7500 Du        
    760 ****       112.5000 258.5000 335.5000 Du        
    761 ****       112.5000 258.5000 335.7500 Du        
    762 ****       112.5000 258.5000 336.0000 Du        
    763 ****       112.5000 258.5000 336.2500 Du        
    764 ****       112.5000 258.5000 336.5000 Du        
    765 ****       112.5000 258.5000 336.7500 Du        
    766 ****       112.5000 258.5000 337.0000 Du        
    767 ****       112.5000 258.7500 335.7500 Du        
    768 ****       112.5000 258.7500 336.0000 Du        
    769 ****       112.5000 258.7500 336.2500 Du        
    770 ****       112.5000 258.7500 336.5000 Du        
    771 ****       112.5000 258.7500 336.7500 Du        
    772 ****       112.5000 258.7500 337.0000 Du        
    773 ****       112.5000 259.0000 336.2500 Du        
    774 ****       112.5000 259.0000 336.5000 Du        
    775 ****       112.5000 259.0000 336.7500 Du        
    776 ****       112.5000 259.0000 337.0000 Du        
    777 ****       112.7500 254.0000 343.0000 Du        
    778 ****       112.7500 254.0000 343.2500 Du        
    779 ****       112.7500 254.0000 343.5000 Du        
    780 ****       112.7500 254.0000 343.7500 Du        
    781 ****       112.7500 254.2500 342.7500 Du        
    782 ****       112.7500 254.2500 343.0000 Du        
    783 ****       112.7500 254.2500 343.2500 Du        
    784 ****       112.7500 254.2500 343.5000 Du        
    785 ****       112.7500 254.2500 343.7500 Du        
    786 ****       112.7500 254.2500 344.0000 Du        
    787 ****       112.7500 254.2500 344.2500 Du        
    788 ****       112.7500 254.5000 342.7500 Du        
    789 ****       112.7500 254.5000 343.0000 Du        
    790 ****       112.7500 254.5000 343.2500 Du        
    791 ****       112.7500 254.5000 343.5000 Du        
    792 ****       112.7500 254.5000 343.7500 Du        
    793 ****       112.7500 254.5000 344.0000 Du        
    794 ****       112.7500 254.5000 344.2500 Du        
    795 ****       112.7500 254.5000 344.5000 Du        
    796 ****       112.7500 254.7500 342.7500 Du        
    797 ****       112.7500 254.7500 343.0000 Du        
    798 ****       112.7500 254.7500 343.2500 Du        
    799 ****       112.7500 254.7500 343.5000 Du        
    800 ****       112.7500 254.7500 343.7500 Du        
    801 ****       112.7500 254.7500 344.0000 Du        
    802 ****       112.7500 254.7500 344.2500 Du        
    803 ****       112.7500 254.7500 344.5000 Du        
    804 ****       112.7500 254.7500 344.7500 Du        
    805 ****       112.7500 255.0000 342.7500 Du        
    806 ****       112.7500 255.0000 343.0000 Du        
    807 ****       112.7500 255.0000 343.2500 Du        
    808 ****       112.7500 255.0000 343.5000 Du        
    809 ****       112.7500 255.0000 343.7500 Du        
    810 ****       112.7500 255.0000 344.0000 Du        
    811 ****       112.7500 255.0000 344.2500 Du        
    812 ****       112.7500 255.0000 344.5000 Du        
    813 ****       112.7500 255.0000 344.7500 Du        
    814 ****       112.7500 255.0000 345.0000 Du        
    815 ****       112.7500 255.2500 343.0000 Du        
    816 ****       112.7500 255.2500 343.2500 Du        
    817 ****       112.7500 255.2500 343.5000 Du        
    818 ****       112.7500 255.2500 343.7500 Du        
    819 ****       112.7500 255.2500 344.0000 Du        
    820 ****       112.7500 255.2500 344.2500 Du        
    821 ****       112.7500 255.2500 344.5000 Du        
    822 ****       112.7500 255.2500 344.7500 Du        
    823 ****       112.7500 255.2500 345.0000 Du        
    824 ****       112.7500 255.5000 343.0000 Du        
    825 ****       112.7500 255.5000 343.2500 Du        
    826 ****       112.7500 255.5000 343.5000 Du        
    827 ****       112.7500 255.5000 343.7500 Du        
    828 ****       112.7500 255.5000 344.0000 Du        
    829 ****       112.7500 255.5000 344.2500 Du        
    830 ****       112.7500 255.5000 344.5000 Du        
    831 ****       112.7500 255.5000 344.7500 Du        
    832 ****       112.7500 255.5000 345.0000 Du        
    833 ****       112.7500 255.7500 343.5000 Du        
    834 ****       112.7500 255.7500 343.7500 Du        
    835 ****       112.7500 255.7500 344.0000 Du        
    836 ****       112.7500 255.7500 344.2500 Du        
    837 ****       112.7500 255.7500 344.5000 Du        
    838 ****       112.7500 255.7500 344.7500 Du        
    839 ****       112.7500 256.0000 336.0000 Du        
    840 ****       112.7500 256.0000 344.2500 Du        
    841 ****       112.7500 256.0000 344.5000 Du        
    842 ****       112.7500 256.2500 335.5000 Du        
    843 ****       112.7500 256.2500 335.7500 Du        
    844 ****       112.7500 256.2500 336.0000 Du        
    845 ****       112.7500 256.2500 336.2500 Du        
    846 ****       112.7500 256.5000 335.2500 Du        
    847 ****       112.7500 256.5000 335.5000 Du        
    848 ****       112.7500 256.5000 335.7500 Du        
    849 ****       112.7500 256.5000 336.0000 Du        
    850 ****       112.7500 256.5000 336.2500 Du        
    851 ****       112.7500 256.7500 335.0000 Du        
    852 ****       112.7500 256.7500 335.2500 Du        
    853 ****       112.7500 256.7500 335.5000 Du        
    854 ****       112.7500 256.7500 335.7500 Du        
    855 ****       112.7500 256.7500 336.0000 Du        
    856 ****       112.7500 256.7500 336.2500 Du        
    857 ****       112.7500 257.0000 335.0000 Du        
    858 ****       112.7500 257.0000 335.2500 Du        
    859 ****       112.7500 257.0000 335.5000 Du        
    860 ****       112.7500 257.0000 335.7500 Du        
    861 ****       112.7500 257.0000 336.0000 Du        
    862 ****       112.7500 257.0000 336.2500 Du        
    863 ****       112.7500 257.2500 335.0000 Du        
    864 ****       112.7500 257.2500 335.2500 Du        
    865 ****       112.7500 257.2500 335.5000 Du        
    866 ****       112.7500 257.2500 335.7500 Du        
    867 ****       112.7500 257.2500 336.0000 Du        
    868 ****       112.7500 257.2500 336.2500 Du        
    869 ****       112.7500 257.5000 335.0000 Du        
    870 ****       112.7500 257.5000 335.2500 Du        
    871 ****       112.7500 257.5000 335.5000 Du        
    872 ****       112.7500 257.5000 335.7500 Du        
    873 ****       112.7500 257.5000 336.0000 Du        
    874 ****       112.7500 257.5000 336.2500 Du        
    875 ****       112.7500 257.5000 336.5000 Du        
    876 ****       112.7500 257.7500 335.0000 Du        
    877 ****       112.7500 257.7500 335.2500 Du        
    878 ****       112.7500 257.7500 335.5000 Du        
    879 ****       112.7500 257.7500 335.7500 Du        
    880 ****       112.7500 257.7500 336.0000 Du        
    881 ****       112.7500 257.7500 336.2500 Du        
    882 ****       112.7500 257.7500 336.5000 Du        
    883 ****       112.7500 258.0000 335.0000 Du        
    884 ****       112.7500 258.0000 335.2500 Du        
    885 ****       112.7500 258.0000 335.5000 Du        
    886 ****       112.7500 258.0000 335.7500 Du        
    887 ****       112.7500 258.0000 336.0000 Du        
    888 ****       112.7500 258.0000 336.2500 Du        
    889 ****       112.7500 258.0000 336.5000 Du        
    890 ****       112.7500 258.0000 336.7500 Du        
    891 ****       112.7500 258.2500 335.0000 Du        
    892 ****       112.7500 258.2500 335.2500 Du        
    893 ****       112.7500 258.2500 335.5000 Du        
    894 ****       112.7500 258.2500 335.7500 Du        
    895 ****       112.7500 258.2500 336.0000 Du        
    896 ****       112.7500 258.2500 336.2500 Du        
    897 ****       112.7500 258.2500 336.5000 Du        
    898 ****       112.7500 258.2500 336.7500 Du        
    899 ****       112.7500 258.5000 335.5000 Du        
    900 ****       112.7500 258.5000 335.7500 Du        
    901 ****       112.7500 258.5000 336.0000 Du        
    902 ****       112.7500 258.5000 336.2500 Du        
    903 ****       112.7500 258.5000 336.5000 Du        
    904 ****       112.7500 258.5000 336.7500 Du        
    905 ****       112.7500 258.5000 337.0000 Du        
    906 ****       112.7500 258.7500 335.5000 Du        
    907 ****       112.7500 258.7500 335.7500 Du        
    908 ****       112.7500 258.7500 336.0000 Du        
    909 ****       112.7500 258.7500 336.2500 Du        
    910 ****       112.7500 258.7500 336.5000 Du        
    911 ****       112.7500 258.7500 336.7500 Du        
    912 ****       112.7500 258.7500 337.0000 Du        
    913 ****       112.7500 259.0000 336.0000 Du        
    914 ****       112.7500 259.0000 336.2500 Du        
    915 ****       112.7500 259.0000 336.5000 Du        
    916 ****       112.7500 259.0000 336.7500 Du        
    917 ****       112.7500 259.0000 337.0000 Du        
    918 ****       112.7500 259.2500 336.5000 Du        
    919 ****       112.7500 259.2500 336.7500 Du        
    920 ****       113.0000 253.7500 343.2500 Du        
    921 ****       113.0000 254.0000 342.7500 Du        
    922 ****       113.0000 254.0000 343.0000 Du        
    923 ****       113.0000 254.0000 343.2500 Du        
    924 ****       113.0000 254.0000 343.5000 Du        
    925 ****       113.0000 254.0000 343.7500 Du        
    926 ****       113.0000 254.0000 344.0000 Du        
    927 ****       113.0000 254.2500 342.7500 Du        
    928 ****       113.0000 254.2500 343.0000 Du        
    929 ****       113.0000 254.2500 343.2500 Du        
    930 ****       113.0000 254.2500 343.5000 Du        
    931 ****       113.0000 254.2500 343.7500 Du        
    932 ****       113.0000 254.2500 344.0000 Du        
    933 ****       113.0000 254.2500 344.2500 Du        
    934 ****       113.0000 254.5000 342.7500 Du        
    935 ****       113.0000 254.5000 343.0000 Du        
    936 ****       113.0000 254.5000 343.2500 Du        
    937 ****       113.0000 254.5000 343.5000 Du        
    938 ****       113.0000 254.5000 343.7500 Du        
    939 ****       113.0000 254.5000 344.0000 Du        
    940 ****       113.0000 254.5000 344.2500 Du        
    941 ****       113.0000 254.5000 344.5000 Du        
    942 ****       113.0000 254.5000 344.7500 Du        
    943 ****       113.0000 254.7500 342.7500 Du        
    944 ****       113.0000 254.7500 343.0000 Du        
    945 ****       113.0000 254.7500 343.2500 Du        
    946 ****       113.0000 254.7500 343.5000 Du        
    947 ****       113.0000 254.7500 343.7500 Du        
    948 ****       113.0000 254.7500 344.0000 Du        
    949 ****       113.0000 254.7500 344.2500 Du        
    950 ****       113.0000 254.7500 344.5000 Du        
    951 ****       113.0000 254.7500 344.7500 Du        
    952 ****       113.0000 254.7500 345.0000 Du        
    953 ****       113.0000 255.0000 342.7500 Du        
    954 ****       113.0000 255.0000 343.0000 Du        
    955 ****       113.0000 255.0000 343.2500 Du        
    956 ****       113.0000 255.0000 343.5000 Du        
    957 ****       113.0000 255.0000 343.7500 Du        
    958 ****       113.0000 255.0000 344.0000 Du        
    959 ****       113.0000 255.0000 344.2500 Du        
    960 ****       113.0000 255.0000 344.5000 Du        
    961 ****       113.0000 255.0000 344.7500 Du        
    962 ****       113.0000 255.0000 345.0000 Du        
    963 ****       113.0000 255.2500 343.0000 Du        
    964 ****       113.0000 255.2500 343.2500 Du        
    965 ****       113.0000 255.2500 343.5000 Du        
    966 ****       113.0000 255.2500 343.7500 Du        
    967 ****       113.0000 255.2500 344.0000 Du        
    968 ****       113.0000 255.2500 344.2500 Du        
    969 ****       113.0000 255.2500 344.5000 Du        
    970 ****       113.0000 255.2500 344.7500 Du        
    971 ****       113.0000 255.2500 345.0000 Du        
    972 ****       113.0000 255.5000 343.0000 Du        
    973 ****       113.0000 255.5000 343.2500 Du        
    974 ****       113.0000 255.5000 343.5000 Du        
    975 ****       113.0000 255.5000 343.7500 Du        
    976 ****       113.0000 255.5000 344.0000 Du        
    977 ****       113.0000 255.5000 344.2500 Du        
    978 ****       113.0000 255.5000 344.5000 Du        
    979 ****       113.0000 255.5000 344.7500 Du        
    980 ****       113.0000 255.5000 345.0000 Du        
    981 ****       113.0000 255.7500 343.5000 Du        
    982 ****       113.0000 255.7500 343.7500 Du        
    983 ****       113.0000 255.7500 344.0000 Du        
    984 ****       113.0000 255.7500 344.2500 Du        
    985 ****       113.0000 255.7500 344.5000 Du        
    986 ****       113.0000 255.7500 344.7500 Du        
    987 ****       113.0000 255.7500 345.0000 Du        
    988 ****       113.0000 256.0000 335.7500 Du        
    989 ****       113.0000 256.0000 336.0000 Du        
    990 ****       113.0000 256.0000 344.2500 Du        
    991 ****       113.0000 256.0000 344.5000 Du        
    992 ****       113.0000 256.0000 344.7500 Du        
    993 ****       113.0000 256.2500 335.5000 Du        
    994 ****       113.0000 256.2500 335.7500 Du        
    995 ****       113.0000 256.2500 336.0000 Du        
    996 ****       113.0000 256.2500 336.2500 Du        
    997 ****       113.0000 256.5000 335.0000 Du        
    998 ****       113.0000 256.5000 335.2500 Du        
    999 ****       113.0000 256.5000 335.5000 Du        
   1000 ****       113.0000 256.5000 335.7500 Du        
   1001 ****       113.0000 256.5000 336.0000 Du        
   1002 ****       113.0000 256.5000 336.2500 Du        
   1003 ****       113.0000 256.7500 335.0000 Du        
   1004 ****       113.0000 256.7500 335.2500 Du        
   1005 ****       113.0000 256.7500 335.5000 Du        
   1006 ****       113.0000 256.7500 335.7500 Du        
   1007 ****       113.0000 256.7500 336.0000 Du        
   1008 ****       113.0000 256.7500 336.2500 Du        
   1009 ****       113.0000 257.0000 335.0000 Du        
   1010 ****       113.0000 257.0000 335.2500 Du        
   1011 ****       113.0000 257.0000 335.5000 Du        
   1012 ****       113.0000 257.0000 335.7500 Du        
   1013 ****       113.0000 257.0000 336.0000 Du        
   1014 ****       113.0000 257.0000 336.2500 Du        
   1015 ****       113.0000 257.2500 335.0000 Du        
   1016 ****       113.0000 257.2500 335.2500 Du        
   1017 ****       113.0000 257.2500 335.5000 Du        
   1018 ****       113.0000 257.2500 335.7500 Du        
   1019 ****       113.0000 257.2500 336.0000 Du        
   1020 ****       113.0000 257.2500 336.2500 Du        
   1021 ****       113.0000 257.5000 335.0000 Du        
   1022 ****       113.0000 257.5000 335.2500 Du        
   1023 ****       113.0000 257.5000 335.5000 Du        
   1024 ****       113.0000 257.5000 335.7500 Du        
   1025 ****       113.0000 257.5000 336.0000 Du        
   1026 ****       113.0000 257.5000 336.2500 Du        
   1027 ****       113.0000 257.5000 336.5000 Du        
   1028 ****       113.0000 257.7500 335.0000 Du        
   1029 ****       113.0000 257.7500 335.2500 Du        
   1030 ****       113.0000 257.7500 335.5000 Du        
   1031 ****       113.0000 257.7500 335.7500 Du        
   1032 ****       113.0000 257.7500 336.0000 Du        
   1033 ****       113.0000 257.7500 336.2500 Du        
   1034 ****       113.0000 257.7500 336.5000 Du        
   1035 ****       113.0000 258.0000 335.0000 Du        
   1036 ****       113.0000 258.0000 335.2500 Du        
   1037 ****       113.0000 258.0000 335.5000 Du        
   1038 ****       113.0000 258.0000 335.7500 Du        
   1039 ****       113.0000 258.0000 336.0000 Du        
   1040 ****       113.0000 258.0000 336.2500 Du        
   1041 ****       113.0000 258.0000 336.5000 Du        
   1042 ****       113.0000 258.0000 336.7500 Du        
   1043 ****       113.0000 258.2500 335.0000 Du        
   1044 ****       113.0000 258.2500 335.2500 Du        
   1045 ****       113.0000 258.2500 335.5000 Du        
   1046 ****       113.0000 258.2500 335.7500 Du        
   1047 ****       113.0000 258.2500 336.0000 Du        
   1048 ****       113.0000 258.2500 336.2500 Du        
   1049 ****       113.0000 258.2500 336.5000 Du        
   1050 ****       113.0000 258.2500 336.7500 Du        
   1051 ****       113.0000 258.5000 335.5000 Du        
   1052 ****       113.0000 258.5000 335.7500 Du        
   1053 ****       113.0000 258.5000 336.0000 Du        
   1054 ****       113.0000 258.5000 336.2500 Du        
   1055 ****       113.0000 258.5000 336.5000 Du        
   1056 ****       113.0000 258.5000 336.7500 Du        
   1057 ****       113.0000 258.5000 337.0000 Du        
   1058 ****       113.0000 258.7500 335.5000 Du        
   1059 ****       113.0000 258.7500 335.7500 Du        
   1060 ****       113.0000 258.7500 336.0000 Du        
   1061 ****       113.0000 258.7500 336.2500 Du        
   1062 ****       113.0000 258.7500 336.5000 Du        
   1063 ****       113.0000 258.7500 336.7500 Du        
   1064 ****       113.0000 258.7500 337.0000 Du        
   1065 ****       113.0000 259.0000 335.5000 Du        
   1066 ****       113.0000 259.0000 335.7500 Du        
   1067 ****       113.0000 259.0000 336.0000 Du        
   1068 ****       113.0000 259.0000 336.2500 Du        
   1069 ****       113.0000 259.0000 336.5000 Du        
   1070 ****       113.0000 259.0000 336.7500 Du        
   1071 ****       113.0000 259.0000 337.0000 Du        
   1072 ****       113.0000 259.2500 336.2500 Du        
   1073 ****       113.0000 259.2500 336.5000 Du        
   1074 ****       113.0000 259.2500 336.7500 Du        
   1075 ****       113.0000 260.0000 349.7500 Du        
   1076 ****       113.2500 253.7500 343.0000 Du        
   1077 ****       113.2500 253.7500 343.2500 Du        
   1078 ****       113.2500 253.7500 343.5000 Du        
   1079 ****       113.2500 254.0000 342.5000 Du        
   1080 ****       113.2500 254.0000 342.7500 Du        
   1081 ****       113.2500 254.0000 343.0000 Du        
   1082 ****       113.2500 254.0000 343.2500 Du        
   1083 ****       113.2500 254.0000 343.5000 Du        
   1084 ****       113.2500 254.0000 343.7500 Du        
   1085 ****       113.2500 254.0000 344.0000 Du        
   1086 ****       113.2500 254.2500 342.5000 Du        
   1087 ****       113.2500 254.2500 342.7500 Du        
   1088 ****       113.2500 254.2500 343.0000 Du        
   1089 ****       113.2500 254.2500 343.2500 Du        
   1090 ****       113.2500 254.2500 343.5000 Du        
   1091 ****       113.2500 254.2500 343.7500 Du        
   1092 ****       113.2500 254.2500 344.0000 Du        
   1093 ****       113.2500 254.2500 344.2500 Du        
   1094 ****       113.2500 254.2500 344.5000 Du        
   1095 ****       113.2500 254.5000 342.5000 Du        
   1096 ****       113.2500 254.5000 342.7500 Du        
   1097 ****       113.2500 254.5000 343.0000 Du        
   1098 ****       113.2500 254.5000 343.2500 Du        
   1099 ****       113.2500 254.5000 343.5000 Du        
   1100 ****       113.2500 254.5000 343.7500 Du        
   1101 ****       113.2500 254.5000 344.0000 Du        
   1102 ****       113.2500 254.5000 344.2500 Du        
   1103 ****       113.2500 254.5000 344.5000 Du        
   1104 ****       113.2500 254.5000 344.7500 Du        
   1105 ****       113.2500 254.7500 342.7500 Du        
   1106 ****       113.2500 254.7500 343.0000 Du        
   1107 ****       113.2500 254.7500 343.2500 Du        
   1108 ****       113.2500 254.7500 343.5000 Du        
   1109 ****       113.2500 254.7500 343.7500 Du        
   1110 ****       113.2500 254.7500 344.0000 Du        
   1111 ****       113.2500 254.7500 344.2500 Du        
   1112 ****       113.2500 254.7500 344.5000 Du        
   1113 ****       113.2500 254.7500 344.7500 Du        
   1114 ****       113.2500 254.7500 345.0000 Du        
   1115 ****       113.2500 255.0000 342.7500 Du        
   1116 ****       113.2500 255.0000 343.0000 Du        
   1117 ****       113.2500 255.0000 343.2500 Du        
   1118 ****       113.2500 255.0000 343.5000 Du        
   1119 ****       113.2500 255.0000 343.7500 Du        
   1120 ****       113.2500 255.0000 344.0000 Du        
   1121 ****       113.2500 255.0000 344.2500 Du        
   1122 ****       113.2500 255.0000 344.5000 Du        
   1123 ****       113.2500 255.0000 344.7500 Du        
   1124 ****       113.2500 255.0000 345.0000 Du        
   1125 ****       113.2500 255.0000 345.2500 Du        
   1126 ****       113.2500 255.2500 343.0000 Du        
   1127 ****       113.2500 255.2500 343.2500 Du        
   1128 ****       113.2500 255.2500 343.5000 Du        
   1129 ****       113.2500 255.2500 343.7500 Du        
   1130 ****       113.2500 255.2500 344.0000 Du        
   1131 ****       113.2500 255.2500 344.2500 Du        
   1132 ****       113.2500 255.2500 344.5000 Du        
   1133 ****       113.2500 255.2500 344.7500 Du        
   1134 ****       113.2500 255.2500 345.0000 Du        
   1135 ****       113.2500 255.2500 345.2500 Du        
   1136 ****       113.2500 255.5000 343.0000 Du        
   1137 ****       113.2500 255.5000 343.2500 Du        
   1138 ****       113.2500 255.5000 343.5000 Du        
   1139 ****       113.2500 255.5000 343.7500 Du        
   1140 ****       113.2500 255.5000 344.0000 Du        
   1141 ****       113.2500 255.5000 344.2500 Du        
   1142 ****       113.2500 255.5000 344.5000 Du        
   1143 ****       113.2500 255.5000 344.7500 Du        
   1144 ****       113.2500 255.5000 345.0000 Du        
   1145 ****       113.2500 255.5000 345.2500 Du        
   1146 ****       113.2500 255.7500 343.5000 Du        
   1147 ****       113.2500 255.7500 343.7500 Du        
   1148 ****       113.2500 255.7500 344.0000 Du        
   1149 ****       113.2500 255.7500 344.2500 Du        
   1150 ****       113.2500 255.7500 344.5000 Du        
   1151 ****       113.2500 255.7500 344.7500 Du        
   1152 ****       113.2500 255.7500 345.0000 Du        
   1153 ****       113.2500 255.7500 345.2500 Du        
   1154 ****       113.2500 256.0000 335.7500 Du        
   1155 ****       113.2500 256.0000 336.0000 Du        
   1156 ****       113.2500 256.0000 344.2500 Du        
   1157 ****       113.2500 256.0000 344.5000 Du        
   1158 ****       113.2500 256.0000 344.7500 Du        
   1159 ****       113.2500 256.0000 345.0000 Du        
   1160 ****       113.2500 256.2500 335.5000 Du        
   1161 ****       113.2500 256.2500 335.7500 Du        
   1162 ****       113.2500 256.2500 336.0000 Du        
   1163 ****       113.2500 256.2500 336.2500 Du        
   1164 ****       113.2500 256.5000 335.0000 Du        
   1165 ****       113.2500 256.5000 335.2500 Du        
   1166 ****       113.2500 256.5000 335.5000 Du        
   1167 ****       113.2500 256.5000 335.7500 Du        
   1168 ****       113.2500 256.5000 336.0000 Du        
   1169 ****       113.2500 256.5000 336.2500 Du        
   1170 ****       113.2500 256.7500 335.0000 Du        
   1171 ****       113.2500 256.7500 335.2500 Du        
   1172 ****       113.2500 256.7500 335.5000 Du        
   1173 ****       113.2500 256.7500 335.7500 Du        
   1174 ****       113.2500 256.7500 336.0000 Du        
   1175 ****       113.2500 256.7500 336.2500 Du        
   1176 ****       113.2500 257.0000 335.0000 Du        
   1177 ****       113.2500 257.0000 335.2500 Du        
   1178 ****       113.2500 257.0000 335.5000 Du        
   1179 ****       113.2500 257.0000 335.7500 Du        
   1180 ****       113.2500 257.0000 336.0000 Du        
   1181 ****       113.2500 257.0000 336.2500 Du        
   1182 ****       113.2500 257.2500 335.0000 Du        
   1183 ****       113.2500 257.2500 335.2500 Du        
   1184 ****       113.2500 257.2500 335.5000 Du        
   1185 ****       113.2500 257.2500 335.7500 Du        
   1186 ****       113.2500 257.2500 336.0000 Du        
   1187 ****       113.2500 257.2500 336.2500 Du        
   1188 ****       113.2500 257.5000 335.0000 Du        
   1189 ****       113.2500 257.5000 335.2500 Du        
   1190 ****       113.2500 257.5000 335.5000 Du        
   1191 ****       113.2500 257.5000 335.7500 Du        
   1192 ****       113.2500 257.5000 336.0000 Du        
   1193 ****       113.2500 257.5000 336.2500 Du        
   1194 ****       113.2500 257.7500 335.0000 Du        
   1195 ****       113.2500 257.7500 335.2500 Du        
   1196 ****       113.2500 257.7500 335.5000 Du        
   1197 ****       113.2500 257.7500 335.7500 Du        
   1198 ****       113.2500 257.7500 336.0000 Du        
   1199 ****       113.2500 257.7500 336.2500 Du        
   1200 ****       113.2500 257.7500 336.5000 Du        
   1201 ****       113.2500 258.0000 335.0000 Du        
   1202 ****       113.2500 258.0000 335.2500 Du        
   1203 ****       113.2500 258.0000 335.5000 Du        
   1204 ****       113.2500 258.0000 335.7500 Du        
   1205 ****       113.2500 258.0000 336.0000 Du        
   1206 ****       113.2500 258.0000 336.2500 Du        
   1207 ****       113.2500 258.0000 336.5000 Du        
   1208 ****       113.2500 258.2500 335.0000 Du        
   1209 ****       113.2500 258.2500 335.2500 Du        
   1210 ****       113.2500 258.2500 335.5000 Du        
   1211 ****       113.2500 258.2500 335.7500 Du        
   1212 ****       113.2500 258.2500 336.0000 Du        
   1213 ****       113.2500 258.2500 336.2500 Du        
   1214 ****       113.2500 258.2500 336.5000 Du        
   1215 ****       113.2500 258.2500 336.7500 Du        
   1216 ****       113.2500 258.5000 335.5000 Du        
   1217 ****       113.2500 258.5000 335.7500 Du        
   1218 ****       113.2500 258.5000 336.0000 Du        
   1219 ****       113.2500 258.5000 336.2500 Du        
   1220 ****       113.2500 258.5000 336.5000 Du        
   1221 ****       113.2500 258.5000 336.7500 Du        
   1222 ****       113.2500 258.5000 337.0000 Du        
   1223 ****       113.2500 258.7500 335.5000 Du        
   1224 ****       113.2500 258.7500 335.7500 Du        
   1225 ****       113.2500 258.7500 336.0000 Du        
   1226 ****       113.2500 258.7500 336.2500 Du        
   1227 ****       113.2500 258.7500 336.5000 Du        
   1228 ****       113.2500 258.7500 336.7500 Du        
   1229 ****       113.2500 258.7500 337.0000 Du        
   1230 ****       113.2500 259.0000 335.5000 Du        
   1231 ****       113.2500 259.0000 335.7500 Du        
   1232 ****       113.2500 259.0000 336.0000 Du        
   1233 ****       113.2500 259.0000 336.2500 Du        
   1234 ****       113.2500 259.0000 336.5000 Du        
   1235 ****       113.2500 259.0000 336.7500 Du        
   1236 ****       113.2500 259.0000 337.0000 Du        
   1237 ****       113.2500 259.2500 336.0000 Du        
   1238 ****       113.2500 259.2500 336.2500 Du        
   1239 ****       113.2500 259.2500 336.5000 Du        
   1240 ****       113.2500 259.2500 336.7500 Du        
   1241 ****       113.2500 260.0000 349.7500 Du        
   1242 ****       113.5000 253.7500 342.7500 Du        
   1243 ****       113.5000 253.7500 343.0000 Du        
   1244 ****       113.5000 253.7500 343.2500 Du        
   1245 ****       113.5000 253.7500 343.5000 Du        
   1246 ****       113.5000 254.0000 342.5000 Du        
   1247 ****       113.5000 254.0000 342.7500 Du        
   1248 ****       113.5000 254.0000 343.0000 Du        
   1249 ****       113.5000 254.0000 343.2500 Du        
   1250 ****       113.5000 254.0000 343.5000 Du        
   1251 ****       113.5000 254.0000 343.7500 Du        
   1252 ****       113.5000 254.0000 344.0000 Du        
   1253 ****       113.5000 254.0000 344.2500 Du        
   1254 ****       113.5000 254.2500 342.5000 Du        
   1255 ****       113.5000 254.2500 342.7500 Du        
   1256 ****       113.5000 254.2500 343.0000 Du        
   1257 ****       113.5000 254.2500 343.2500 Du        
   1258 ****       113.5000 254.2500 343.5000 Du        
   1259 ****       113.5000 254.2500 343.7500 Du        
   1260 ****       113.5000 254.2500 344.0000 Du        
   1261 ****       113.5000 254.2500 344.2500 Du        
   1262 ****       113.5000 254.2500 344.5000 Du        
   1263 ****       113.5000 254.5000 342.5000 Du        
   1264 ****       113.5000 254.5000 342.7500 Du        
   1265 ****       113.5000 254.5000 343.0000 Du        
   1266 ****       113.5000 254.5000 343.2500 Du        
   1267 ****       113.5000 254.5000 343.5000 Du        
   1268 ****       113.5000 254.5000 343.7500 Du        
   1269 ****       113.5000 254.5000 344.0000 Du        
   1270 ****       113.5000 254.5000 344.2500 Du        
   1271 ****       113.5000 254.5000 344.5000 Du        
   1272 ****       113.5000 254.5000 344.7500 Du        
   1273 ****       113.5000 254.7500 342.5000 Du        
   1274 ****       113.5000 254.7500 342.7500 Du        
   1275 ****       113.5000 254.7500 343.0000 Du        
   1276 ****       113.5000 254.7500 343.2500 Du        
   1277 ****       113.5000 254.7500 343.5000 Du        
   1278 ****       113.5000 254.7500 343.7500 Du        
   1279 ****       113.5000 254.7500 344.0000 Du        
   1280 ****       113.5000 254.7500 344.2500 Du        
   1281 ****       113.5000 254.7500 344.5000 Du        
   1282 ****       113.5000 254.7500 344.7500 Du        
   1283 ****       113.5000 254.7500 345.0000 Du        
   1284 ****       113.5000 255.0000 342.7500 Du        
   1285 ****       113.5000 255.0000 343.0000 Du        
   1286 ****       113.5000 255.0000 343.2500 Du        
   1287 ****       113.5000 255.0000 343.5000 Du        
   1288 ****       113.5000 255.0000 343.7500 Du        
   1289 ****       113.5000 255.0000 344.0000 Du        
   1290 ****       113.5000 255.0000 344.2500 Du        
   1291 ****       113.5000 255.0000 344.5000 Du        
   1292 ****       113.5000 255.0000 344.7500 Du        
   1293 ****       113.5000 255.0000 345.0000 Du        
   1294 ****       113.5000 255.0000 345.2500 Du        
   1295 ****       113.5000 255.2500 343.0000 Du        
   1296 ****       113.5000 255.2500 343.2500 Du        
   1297 ****       113.5000 255.2500 343.5000 Du        
   1298 ****       113.5000 255.2500 343.7500 Du        
   1299 ****       113.5000 255.2500 344.0000 Du        
   1300 ****       113.5000 255.2500 344.2500 Du        
   1301 ****       113.5000 255.2500 344.5000 Du        
   1302 ****       113.5000 255.2500 344.7500 Du        
   1303 ****       113.5000 255.2500 345.0000 Du        
   1304 ****       113.5000 255.2500 345.2500 Du        
   1305 ****       113.5000 255.5000 343.0000 Du        
   1306 ****       113.5000 255.5000 343.2500 Du        
   1307 ****       113.5000 255.5000 343.5000 Du        
   1308 ****       113.5000 255.5000 343.7500 Du        
   1309 ****       113.5000 255.5000 344.0000 Du        
   1310 ****       113.5000 255.5000 344.2500 Du        
   1311 ****       113.5000 255.5000 344.5000 Du        
   1312 ****       113.5000 255.5000 344.7500 Du        
   1313 ****       113.5000 255.5000 345.0000 Du        
   1314 ****       113.5000 255.5000 345.2500 Du        
   1315 ****       113.5000 255.7500 343.5000 Du        
   1316 ****       113.5000 255.7500 343.7500 Du        
   1317 ****       113.5000 255.7500 344.0000 Du        
   1318 ****       113.5000 255.7500 344.2500 Du        
   1319 ****       113.5000 255.7500 344.5000 Du        
   1320 ****       113.5000 255.7500 344.7500 Du        
   1321 ****       113.5000 255.7500 345.0000 Du        
   1322 ****       113.5000 255.7500 345.2500 Du        
   1323 ****       113.5000 256.0000 335.7500 Du        
   1324 ****       113.5000 256.0000 336.0000 Du        
   1325 ****       113.5000 256.0000 344.2500 Du        
   1326 ****       113.5000 256.0000 344.5000 Du        
   1327 ****       113.5000 256.0000 344.7500 Du        
   1328 ****       113.5000 256.0000 345.0000 Du        
   1329 ****       113.5000 256.2500 335.5000 Du        
   1330 ****       113.5000 256.2500 335.7500 Du        
   1331 ****       113.5000 256.2500 336.0000 Du        
   1332 ****       113.5000 256.2500 336.2500 Du        
   1333 ****       113.5000 256.5000 335.5000 Du        
   1334 ****       113.5000 256.5000 335.7500 Du        
   1335 ****       113.5000 256.5000 336.0000 Du        
   1336 ****       113.5000 256.7500 335.2500 Du        
   1337 ****       113.5000 256.7500 335.5000 Du        
   1338 ****       113.5000 256.7500 335.7500 Du        
   1339 ****       113.5000 256.7500 336.0000 Du        
   1340 ****       113.5000 257.0000 335.7500 Du        
   1341 ****       113.5000 257.0000 336.0000 Du        
   1342 ****       113.5000 257.7500 336.2500 Du        
   1343 ****       113.5000 258.0000 336.0000 Du        
   1344 ****       113.5000 258.0000 336.2500 Du        
   1345 ****       113.5000 258.2500 335.7500 Du        
   1346 ****       113.5000 258.2500 336.0000 Du        
   1347 ****       113.5000 258.2500 336.2500 Du        
   1348 ****       113.5000 258.2500 336.5000 Du        
   1349 ****       113.5000 258.2500 336.7500 Du        
   1350 ****       113.5000 258.5000 335.5000 Du        
   1351 ****       113.5000 258.5000 335.7500 Du        
   1352 ****       113.5000 258.5000 336.0000 Du        
   1353 ****       113.5000 258.5000 336.2500 Du        
   1354 ****       113.5000 258.5000 336.5000 Du        
   1355 ****       113.5000 258.5000 336.7500 Du        
   1356 ****       113.5000 258.5000 337.0000 Du        
   1357 ****       113.5000 258.7500 335.5000 Du        
   1358 ****       113.5000 258.7500 335.7500 Du        
   1359 ****       113.5000 258.7500 336.0000 Du        
   1360 ****       113.5000 258.7500 336.2500 Du        
   1361 ****       113.5000 258.7500 336.5000 Du        
   1362 ****       113.5000 258.7500 336.7500 Du        
   1363 ****       113.5000 258.7500 337.0000 Du        
   1364 ****       113.5000 259.0000 335.5000 Du        
   1365 ****       113.5000 259.0000 335.7500 Du        
   1366 ****       113.5000 259.0000 336.0000 Du        
   1367 ****       113.5000 259.0000 336.2500 Du        
   1368 ****       113.5000 259.0000 336.5000 Du        
   1369 ****       113.5000 259.0000 336.7500 Du        
   1370 ****       113.5000 259.0000 337.0000 Du        
   1371 ****       113.5000 259.2500 336.0000 Du        
   1372 ****       113.5000 259.2500 336.2500 Du        
   1373 ****       113.5000 259.2500 336.5000 Du        
   1374 ****       113.5000 259.2500 336.7500 Du        
   1375 ****       113.5000 259.7500 349.7500 Du        
   1376 ****       113.5000 260.0000 349.7500 Du        
   1377 ****       113.5000 260.2500 349.7500 Du        
   1378 ****       113.7500 253.7500 342.7500 Du        
   1379 ****       113.7500 253.7500 343.0000 Du        
   1380 ****       113.7500 254.0000 342.2500 Du        
   1381 ****       113.7500 254.0000 342.5000 Du        
   1382 ****       113.7500 254.0000 342.7500 Du        
   1383 ****       113.7500 254.0000 343.0000 Du        
   1384 ****       113.7500 254.0000 343.2500 Du        
   1385 ****       113.7500 254.0000 343.5000 Du        
   1386 ****       113.7500 254.0000 343.7500 Du        
   1387 ****       113.7500 254.0000 344.0000 Du        
   1388 ****       113.7500 254.0000 344.2500 Du        
   1389 ****       113.7500 254.2500 342.2500 Du        
   1390 ****       113.7500 254.2500 342.5000 Du        
   1391 ****       113.7500 254.2500 342.7500 Du        
   1392 ****       113.7500 254.2500 343.0000 Du        
   1393 ****       113.7500 254.2500 343.2500 Du        
   1394 ****       113.7500 254.2500 343.5000 Du        
   1395 ****       113.7500 254.2500 343.7500 Du        
   1396 ****       113.7500 254.2500 344.0000 Du        
   1397 ****       113.7500 254.2500 344.2500 Du        
   1398 ****       113.7500 254.2500 344.5000 Du        
   1399 ****       113.7500 254.2500 344.7500 Du        
   1400 ****       113.7500 254.5000 342.5000 Du        
   1401 ****       113.7500 254.5000 342.7500 Du        
   1402 ****       113.7500 254.5000 343.0000 Du        
   1403 ****       113.7500 254.5000 343.2500 Du        
   1404 ****       113.7500 254.5000 343.5000 Du        
   1405 ****       113.7500 254.5000 343.7500 Du        
   1406 ****       113.7500 254.5000 344.0000 Du        
   1407 ****       113.7500 254.5000 344.2500 Du        
   1408 ****       113.7500 254.5000 344.5000 Du        
   1409 ****       113.7500 254.5000 344.7500 Du        
   1410 ****       113.7500 254.5000 345.0000 Du        
   1411 ****       113.7500 254.7500 342.5000 Du        
   1412 ****       113.7500 254.7500 342.7500 Du        
   1413 ****       113.7500 254.7500 343.0000 Du        
   1414 ****       113.7500 254.7500 343.2500 Du        
   1415 ****       113.7500 254.7500 343.5000 Du        
   1416 ****       113.7500 254.7500 343.7500 Du        
   1417 ****       113.7500 254.7500 344.0000 Du        
   1418 ****       113.7500 254.7500 344.2500 Du        
   1419 ****       113.7500 254.7500 344.5000 Du        
   1420 ****       113.7500 254.7500 344.7500 Du        
   1421 ****       113.7500 254.7500 345.0000 Du        
   1422 ****       113.7500 255.0000 342.7500 Du        
   1423 ****       113.7500 255.0000 343.0000 Du        
   1424 ****       113.7500 255.0000 343.2500 Du        
   1425 ****       113.7500 255.0000 343.5000 Du        
   1426 ****       113.7500 255.0000 343.7500 Du        
   1427 ****       113.7500 255.0000 344.0000 Du        
   1428 ****       113.7500 255.0000 344.2500 Du        
   1429 ****       113.7500 255.0000 344.5000 Du        
   1430 ****       113.7500 255.0000 344.7500 Du        
   1431 ****       113.7500 255.0000 345.0000 Du        
   1432 ****       113.7500 255.0000 345.2500 Du        
   1433 ****       113.7500 255.2500 342.7500 Du        
   1434 ****       113.7500 255.2500 343.0000 Du        
   1435 ****       113.7500 255.2500 343.2500 Du        
   1436 ****       113.7500 255.2500 343.5000 Du        
   1437 ****       113.7500 255.2500 343.7500 Du        
   1438 ****       113.7500 255.2500 344.0000 Du        
   1439 ****       113.7500 255.2500 344.2500 Du        
   1440 ****       113.7500 255.2500 344.5000 Du        
   1441 ****       113.7500 255.2500 344.7500 Du        
   1442 ****       113.7500 255.2500 345.0000 Du        
   1443 ****       113.7500 255.2500 345.2500 Du        
   1444 ****       113.7500 255.5000 343.0000 Du        
   1445 ****       113.7500 255.5000 343.2500 Du        
   1446 ****       113.7500 255.5000 343.5000 Du        
   1447 ****       113.7500 255.5000 343.7500 Du        
   1448 ****       113.7500 255.5000 344.0000 Du        
   1449 ****       113.7500 255.5000 344.2500 Du        
   1450 ****       113.7500 255.5000 344.5000 Du        
   1451 ****       113.7500 255.5000 344.7500 Du        
   1452 ****       113.7500 255.5000 345.0000 Du        
   1453 ****       113.7500 255.5000 345.2500 Du        
   1454 ****       113.7500 255.7500 343.5000 Du        
   1455 ****       113.7500 255.7500 343.7500 Du        
   1456 ****       113.7500 255.7500 344.0000 Du        
   1457 ****       113.7500 255.7500 344.2500 Du        
   1458 ****       113.7500 255.7500 344.5000 Du        
   1459 ****       113.7500 255.7500 344.7500 Du        
   1460 ****       113.7500 255.7500 345.0000 Du        
   1461 ****       113.7500 255.7500 345.2500 Du        
   1462 ****       113.7500 256.0000 344.2500 Du        
   1463 ****       113.7500 256.0000 344.5000 Du        
   1464 ****       113.7500 256.0000 344.7500 Du        
   1465 ****       113.7500 256.0000 345.0000 Du        
   1466 ****       113.7500 256.0000 345.2500 Du        
   1467 ****       113.7500 256.2500 336.0000 Du        
   1468 ****       113.7500 258.5000 336.7500 Du        
   1469 ****       113.7500 258.7500 336.2500 Du        
   1470 ****       113.7500 258.7500 336.5000 Du        
   1471 ****       113.7500 258.7500 336.7500 Du        
   1472 ****       113.7500 258.7500 337.0000 Du        
   1473 ****       113.7500 259.0000 336.0000 Du        
   1474 ****       113.7500 259.0000 336.2500 Du        
   1475 ****       113.7500 259.0000 336.5000 Du        
   1476 ****       113.7500 259.0000 336.7500 Du        
   1477 ****       113.7500 259.0000 337.0000 Du        
   1478 ****       113.7500 259.2500 336.5000 Du        
   1479 ****       113.7500 259.2500 336.7500 Du        
   1480 ****       113.7500 259.5000 350.2500 Du        
   1481 ****       113.7500 259.7500 349.7500 Du        
   1482 ****       113.7500 259.7500 350.0000 Du        
   1483 ****       113.7500 259.7500 350.2500 Du        
   1484 ****       113.7500 260.0000 349.5000 Du        
   1485 ****       113.7500 260.0000 349.7500 Du        
   1486 ****       113.7500 260.2500 349.7500 Du        
   1487 ****       114.0000 254.0000 342.2500 Du        
   1488 ****       114.0000 254.0000 342.5000 Du        
   1489 ****       114.0000 254.0000 342.7500 Du        
   1490 ****       114.0000 254.0000 343.0000 Du        
   1491 ****       114.0000 254.0000 343.2500 Du        
   1492 ****       114.0000 254.0000 343.5000 Du        
   1493 ****       114.0000 254.0000 343.7500 Du        
   1494 ****       114.0000 254.2500 342.2500 Du        
   1495 ****       114.0000 254.2500 342.5000 Du        
   1496 ****       114.0000 254.2500 342.7500 Du        
   1497 ****       114.0000 254.2500 343.0000 Du        
   1498 ****       114.0000 254.2500 343.2500 Du        
   1499 ****       114.0000 254.2500 343.5000 Du        
   1500 ****       114.0000 254.2500 343.7500 Du        
   1501 ****       114.0000 254.2500 344.0000 Du        
   1502 ****       114.0000 254.2500 344.2500 Du        
   1503 ****       114.0000 254.2500 344.5000 Du        
   1504 ****       114.0000 254.5000 342.2500 Du        
   1505 ****       114.0000 254.5000 342.5000 Du        
   1506 ****       114.0000 254.5000 342.7500 Du        
   1507 ****       114.0000 254.5000 343.0000 Du        
   1508 ****       114.0000 254.5000 343.2500 Du        
   1509 ****       114.0000 254.5000 343.5000 Du        
   1510 ****       114.0000 254.5000 343.7500 Du        
   1511 ****       114.0000 254.5000 344.0000 Du        
   1512 ****       114.0000 254.5000 344.2500 Du        
   1513 ****       114.0000 254.5000 344.5000 Du        
   1514 ****       114.0000 254.5000 344.7500 Du        
   1515 ****       114.0000 254.7500 342.5000 Du        
   1516 ****       114.0000 254.7500 342.7500 Du        
   1517 ****       114.0000 254.7500 343.0000 Du        
   1518 ****       114.0000 254.7500 343.2500 Du        
   1519 ****       114.0000 254.7500 343.5000 Du        
   1520 ****       114.0000 254.7500 343.7500 Du        
   1521 ****       114.0000 254.7500 344.0000 Du        
   1522 ****       114.0000 254.7500 344.2500 Du        
   1523 ****       114.0000 254.7500 344.5000 Du        
   1524 ****       114.0000 254.7500 344.7500 Du        
   1525 ****       114.0000 254.7500 345.0000 Du        
   1526 ****       114.0000 255.0000 342.7500 Du        
   1527 ****       114.0000 255.0000 343.0000 Du        
   1528 ****       114.0000 255.0000 343.2500 Du        
   1529 ****       114.0000 255.0000 343.5000 Du        
   1530 ****       114.0000 255.0000 343.7500 Du        
   1531 ****       114.0000 255.0000 344.0000 Du        
   1532 ****       114.0000 255.0000 344.2500 Du        
   1533 ****       114.0000 255.0000 344.5000 Du        
   1534 ****       114.0000 255.0000 344.7500 Du        
   1535 ****       114.0000 255.0000 345.0000 Du        
   1536 ****       114.0000 255.0000 345.2500 Du        
   1537 ****       114.0000 255.2500 342.7500 Du        
   1538 ****       114.0000 255.2500 343.0000 Du        
   1539 ****       114.0000 255.2500 343.2500 Du        
   1540 ****       114.0000 255.2500 343.5000 Du        
   1541 ****       114.0000 255.2500 343.7500 Du        
   1542 ****       114.0000 255.2500 344.0000 Du        
   1543 ****       114.0000 255.2500 344.2500 Du        
   1544 ****       114.0000 255.2500 344.5000 Du        
   1545 ****       114.0000 255.2500 344.7500 Du        
   1546 ****       114.0000 255.2500 345.0000 Du        
   1547 ****       114.0000 255.2500 345.2500 Du        
   1548 ****       114.0000 255.5000 343.0000 Du        
   1549 ****       114.0000 255.5000 343.2500 Du        
   1550 ****       114.0000 255.5000 343.5000 Du        
   1551 ****       114.0000 255.5000 343.7500 Du        
   1552 ****       114.0000 255.5000 344.0000 Du        
   1553 ****       114.0000 255.5000 344.2500 Du        
   1554 ****       114.0000 255.5000 344.5000 Du        
   1555 ****       114.0000 255.5000 344.7500 Du        
   1556 ****       114.0000 255.5000 345.0000 Du        
   1557 ****       114.0000 255.5000 345.2500 Du        
   1558 ****       114.0000 255.5000 345.5000 Du        
   1559 ****       114.0000 255.7500 343.5000 Du        
   1560 ****       114.0000 255.7500 343.7500 Du        
   1561 ****       114.0000 255.7500 344.0000 Du        
   1562 ****       114.0000 255.7500 344.2500 Du        
   1563 ****       114.0000 255.7500 344.5000 Du        
   1564 ****       114.0000 255.7500 344.7500 Du        
   1565 ****       114.0000 255.7500 345.0000 Du        
   1566 ****       114.0000 255.7500 345.2500 Du        
   1567 ****       114.0000 256.0000 344.2500 Du        
   1568 ****       114.0000 256.0000 344.5000 Du        
   1569 ****       114.0000 256.0000 344.7500 Du        
   1570 ****       114.0000 256.0000 345.0000 Du        
   1571 ****       114.0000 256.0000 345.2500 Du        
   1572 ****       114.0000 256.2500 345.0000 Du        
   1573 ****       114.0000 259.5000 350.2500 Du        
   1574 ****       114.0000 259.7500 349.7500 Du        
   1575 ****       114.0000 259.7500 350.0000 Du        
   1576 ****       114.0000 259.7500 350.2500 Du        
   1577 ****       114.0000 260.0000 349.2500 Du        
   1578 ****       114.0000 260.0000 349.5000 Du        
   1579 ****       114.0000 260.0000 349.7500 Du        
   1580 ****       114.0000 260.2500 349.7500 Du        
   1581 ****       114.2500 254.2500 342.2500 Du        
   1582 ****       114.2500 254.2500 342.5000 Du        
   1583 ****       114.2500 254.2500 342.7500 Du        
   1584 ****       114.2500 254.2500 343.0000 Du        
   1585 ****       114.2500 254.2500 343.2500 Du        
   1586 ****       114.2500 254.2500 343.5000 Du        
   1587 ****       114.2500 254.2500 343.7500 Du        
   1588 ****       114.2500 254.2500 344.0000 Du        
   1589 ****       114.2500 254.2500 344.2500 Du        
   1590 ****       114.2500 254.2500 344.5000 Du        
   1591 ****       114.2500 254.5000 342.2500 Du        
   1592 ****       114.2500 254.5000 342.5000 Du        
   1593 ****       114.2500 254.5000 342.7500 Du        
   1594 ****       114.2500 254.5000 343.0000 Du        
   1595 ****       114.2500 254.5000 343.2500 Du        
   1596 ****       114.2500 254.5000 343.5000 Du        
   1597 ****       114.2500 254.5000 343.7500 Du        
   1598 ****       114.2500 254.5000 344.0000 Du        
   1599 ****       114.2500 254.5000 344.2500 Du        
   1600 ****       114.2500 254.5000 344.5000 Du        
   1601 ****       114.2500 254.5000 344.7500 Du        
   1602 ****       114.2500 254.7500 342.5000 Du        
   1603 ****       114.2500 254.7500 342.7500 Du        
   1604 ****       114.2500 254.7500 343.0000 Du        
   1605 ****       114.2500 254.7500 343.2500 Du        
   1606 ****       114.2500 254.7500 343.5000 Du        
   1607 ****       114.2500 254.7500 343.7500 Du        
   1608 ****       114.2500 254.7500 344.0000 Du        
   1609 ****       114.2500 254.7500 344.2500 Du        
   1610 ****       114.2500 254.7500 344.5000 Du        
   1611 ****       114.2500 254.7500 344.7500 Du        
   1612 ****       114.2500 254.7500 345.0000 Du        
   1613 ****       114.2500 255.0000 342.5000 Du        
   1614 ****       114.2500 255.0000 342.7500 Du        
   1615 ****       114.2500 255.0000 343.0000 Du        
   1616 ****       114.2500 255.0000 343.2500 Du        
   1617 ****       114.2500 255.0000 343.5000 Du        
   1618 ****       114.2500 255.0000 343.7500 Du        
   1619 ****       114.2500 255.0000 344.0000 Du        
   1620 ****       114.2500 255.0000 344.2500 Du        
   1621 ****       114.2500 255.0000 344.5000 Du        
   1622 ****       114.2500 255.0000 344.7500 Du        
   1623 ****       114.2500 255.0000 345.0000 Du        
   1624 ****       114.2500 255.0000 345.2500 Du        
   1625 ****       114.2500 255.2500 342.7500 Du        
   1626 ****       114.2500 255.2500 343.0000 Du        
   1627 ****       114.2500 255.2500 343.2500 Du        
   1628 ****       114.2500 255.2500 343.5000 Du        
   1629 ****       114.2500 255.2500 343.7500 Du        
   1630 ****       114.2500 255.2500 344.0000 Du        
   1631 ****       114.2500 255.2500 344.2500 Du        
   1632 ****       114.2500 255.2500 344.5000 Du        
   1633 ****       114.2500 255.2500 344.7500 Du        
   1634 ****       114.2500 255.2500 345.0000 Du        
   1635 ****       114.2500 255.2500 345.2500 Du        
   1636 ****       114.2500 255.5000 343.2500 Du        
   1637 ****       114.2500 255.5000 343.5000 Du        
   1638 ****       114.2500 255.5000 343.7500 Du        
   1639 ****       114.2500 255.5000 344.0000 Du        
   1640 ****       114.2500 255.5000 344.2500 Du        
   1641 ****       114.2500 255.5000 344.5000 Du        
   1642 ****       114.2500 255.5000 344.7500 Du        
   1643 ****       114.2500 255.5000 345.0000 Du        
   1644 ****       114.2500 255.5000 345.2500 Du        
   1645 ****       114.2500 255.5000 345.5000 Du        
   1646 ****       114.2500 255.7500 343.7500 Du        
   1647 ****       114.2500 255.7500 344.0000 Du        
   1648 ****       114.2500 255.7500 344.2500 Du        
   1649 ****       114.2500 255.7500 344.5000 Du        
   1650 ****       114.2500 255.7500 344.7500 Du        
   1651 ****       114.2500 255.7500 345.0000 Du        
   1652 ****       114.2500 255.7500 345.2500 Du        
   1653 ****       114.2500 255.7500 345.5000 Du        
   1654 ****       114.2500 256.0000 344.5000 Du        
   1655 ****       114.2500 256.0000 344.7500 Du        
   1656 ****       114.2500 256.0000 345.0000 Du        
   1657 ****       114.2500 256.0000 345.2500 Du        
   1658 ****       114.2500 256.2500 345.0000 Du        
   1659 ****       114.2500 259.5000 350.2500 Du        
   1660 ****       114.2500 259.7500 349.5000 Du        
   1661 ****       114.2500 259.7500 349.7500 Du        
   1662 ****       114.2500 259.7500 350.0000 Du        
   1663 ****       114.2500 259.7500 350.2500 Du        
   1664 ****       114.2500 260.0000 349.2500 Du        
   1665 ****       114.2500 260.0000 349.5000 Du        
   1666 ****       114.2500 260.0000 349.7500 Du        
   1667 ****       114.2500 260.2500 349.5000 Du        
   1668 ****       114.2500 260.2500 349.7500 Du        
   1669 ****       114.5000 254.2500 342.2500 Du        
   1670 ****       114.5000 254.5000 342.2500 Du        
   1671 ****       114.5000 254.5000 342.5000 Du        
   1672 ****       114.5000 254.5000 342.7500 Du        
   1673 ****       114.5000 254.5000 343.0000 Du        
   1674 ****       114.5000 254.5000 343.2500 Du        
   1675 ****       114.5000 254.5000 343.5000 Du        
   1676 ****       114.5000 254.5000 343.7500 Du        
   1677 ****       114.5000 254.5000 344.0000 Du        
   1678 ****       114.5000 254.5000 344.2500 Du        
   1679 ****       114.5000 254.5000 344.5000 Du        
   1680 ****       114.5000 254.7500 342.2500 Du        
   1681 ****       114.5000 254.7500 342.5000 Du        
   1682 ****       114.5000 254.7500 342.7500 Du        
   1683 ****       114.5000 254.7500 343.0000 Du        
   1684 ****       114.5000 254.7500 343.2500 Du        
   1685 ****       114.5000 254.7500 343.5000 Du        
   1686 ****       114.5000 254.7500 343.7500 Du        
   1687 ****       114.5000 254.7500 344.0000 Du        
   1688 ****       114.5000 254.7500 344.2500 Du        
   1689 ****       114.5000 254.7500 344.5000 Du        
   1690 ****       114.5000 254.7500 344.7500 Du        
   1691 ****       114.5000 255.0000 342.5000 Du        
   1692 ****       114.5000 255.0000 342.7500 Du        
   1693 ****       114.5000 255.0000 343.0000 Du        
   1694 ****       114.5000 255.0000 343.2500 Du        
   1695 ****       114.5000 255.0000 343.5000 Du        
   1696 ****       114.5000 255.0000 343.7500 Du        
   1697 ****       114.5000 255.0000 344.0000 Du        
   1698 ****       114.5000 255.0000 344.2500 Du        
   1699 ****       114.5000 255.0000 344.5000 Du        
   1700 ****       114.5000 255.0000 344.7500 Du        
   1701 ****       114.5000 255.0000 345.0000 Du        
   1702 ****       114.5000 255.2500 343.0000 Du        
   1703 ****       114.5000 255.2500 343.2500 Du        
   1704 ****       114.5000 255.2500 343.5000 Du        
   1705 ****       114.5000 255.2500 343.7500 Du        
   1706 ****       114.5000 255.2500 344.0000 Du        
   1707 ****       114.5000 255.2500 344.2500 Du        
   1708 ****       114.5000 255.2500 344.5000 Du        
   1709 ****       114.5000 255.2500 344.7500 Du        
   1710 ****       114.5000 255.2500 345.0000 Du        
   1711 ****       114.5000 255.2500 345.2500 Du        
   1712 ****       114.5000 255.5000 343.7500 Du        
   1713 ****       114.5000 255.5000 344.0000 Du        
   1714 ****       114.5000 255.5000 344.2500 Du        
   1715 ****       114.5000 255.5000 344.5000 Du        
   1716 ****       114.5000 255.5000 344.7500 Du        
   1717 ****       114.5000 255.5000 345.0000 Du        
   1718 ****       114.5000 255.5000 345.2500 Du        
   1719 ****       114.5000 255.5000 345.5000 Du        
   1720 ****       114.5000 255.7500 344.2500 Du        
   1721 ****       114.5000 255.7500 344.5000 Du        
   1722 ****       114.5000 255.7500 344.7500 Du        
   1723 ****       114.5000 255.7500 345.0000 Du        
   1724 ****       114.5000 255.7500 345.2500 Du        
   1725 ****       114.5000 255.7500 345.5000 Du        
   1726 ****       114.5000 256.0000 344.7500 Du        
   1727 ****       114.5000 256.0000 345.0000 Du        
   1728 ****       114.5000 256.0000 345.2500 Du        
   1729 ****       114.5000 259.7500 349.7500 Du        
   1730 ****       114.5000 259.7500 350.0000 Du        
   1731 ****       114.5000 259.7500 350.2500 Du        
   1732 ****       114.5000 260.0000 349.0000 Du        
   1733 ****       114.5000 260.0000 349.2500 Du        
   1734 ****       114.5000 260.0000 349.5000 Du        
   1735 ****       114.5000 260.0000 349.7500 Du        
   1736 ****       114.5000 260.2500 349.7500 Du        
   1737 ****       114.7500 254.5000 342.2500 Du        
   1738 ****       114.7500 254.7500 342.2500 Du        
   1739 ****       114.7500 254.7500 342.5000 Du        
   1740 ****       114.7500 254.7500 342.7500 Du        
   1741 ****       114.7500 254.7500 343.0000 Du        
   1742 ****       114.7500 254.7500 343.2500 Du        
   1743 ****       114.7500 254.7500 343.5000 Du        
   1744 ****       114.7500 254.7500 343.7500 Du        
   1745 ****       114.7500 254.7500 344.0000 Du        
   1746 ****       114.7500 254.7500 344.2500 Du        
   1747 ****       114.7500 254.7500 344.5000 Du        
   1748 ****       114.7500 254.7500 344.7500 Du        
   1749 ****       114.7500 255.0000 342.5000 Du        
   1750 ****       114.7500 255.0000 342.7500 Du        
   1751 ****       114.7500 255.0000 343.0000 Du        
   1752 ****       114.7500 255.0000 343.2500 Du        
   1753 ****       114.7500 255.0000 343.5000 Du        
   1754 ****       114.7500 255.0000 343.7500 Du        
   1755 ****       114.7500 255.0000 344.0000 Du        
   1756 ****       114.7500 255.0000 344.2500 Du        
   1757 ****       114.7500 255.0000 344.5000 Du        
   1758 ****       114.7500 255.0000 344.7500 Du        
   1759 ****       114.7500 255.0000 345.0000 Du        
   1760 ****       114.7500 255.2500 344.0000 Du        
   1761 ****       114.7500 255.2500 344.2500 Du        
   1762 ****       114.7500 255.2500 344.5000 Du        
   1763 ****       114.7500 255.2500 344.7500 Du        
   1764 ****       114.7500 255.2500 345.0000 Du        
   1765 ****       114.7500 255.2500 345.2500 Du        
   1766 ****       114.7500 255.5000 344.5000 Du        
   1767 ****       114.7500 255.5000 344.7500 Du        
   1768 ****       114.7500 255.5000 345.0000 Du        
   1769 ****       114.7500 255.5000 345.2500 Du        
   1770 ****       114.7500 255.7500 345.0000 Du        
   1771 ****       114.7500 255.7500 345.2500 Du        
   1772 ****       114.7500 255.7500 345.5000 Du        
   1773 ****       114.7500 259.5000 346.7500 Du        
   1774 ****       114.7500 259.5000 347.0000 Du        
   1775 ****       114.7500 259.5000 350.0000 Du        
   1776 ****       114.7500 259.5000 350.2500 Du        
   1777 ****       114.7500 259.7500 348.7500 Du        
   1778 ****       114.7500 259.7500 349.0000 Du        
   1779 ****       114.7500 259.7500 349.2500 Du        
   1780 ****       114.7500 259.7500 349.5000 Du        
   1781 ****       114.7500 259.7500 349.7500 Du        
   1782 ****       114.7500 259.7500 350.0000 Du        
   1783 ****       114.7500 259.7500 350.2500 Du        
   1784 ****       114.7500 260.0000 348.7500 Du        
   1785 ****       114.7500 260.0000 349.0000 Du        
   1786 ****       114.7500 260.0000 349.2500 Du        
   1787 ****       114.7500 260.0000 349.5000 Du        
   1788 ****       114.7500 260.0000 349.7500 Du        
   1789 ****       114.7500 260.2500 349.5000 Du        
   1790 ****       114.7500 260.2500 349.7500 Du        
   1791 ****       115.0000 254.7500 342.0000 Du        
   1792 ****       115.0000 254.7500 342.2500 Du        
   1793 ****       115.0000 255.0000 344.5000 Du        
   1794 ****       115.0000 255.0000 344.7500 Du        
   1795 ****       115.0000 255.2500 344.7500 Du        
   1796 ****       115.0000 255.2500 345.0000 Du        
   1797 ****       115.0000 259.2500 346.2500 Du        
   1798 ****       115.0000 259.2500 346.5000 Du        
   1799 ****       115.0000 259.2500 346.7500 Du        
   1800 ****       115.0000 259.2500 347.0000 Du        
   1801 ****       115.0000 259.2500 347.2500 Du        
   1802 ****       115.0000 259.5000 346.2500 Du        
   1803 ****       115.0000 259.5000 346.5000 Du        
   1804 ****       115.0000 259.5000 346.7500 Du        
   1805 ****       115.0000 259.5000 347.0000 Du        
   1806 ****       115.0000 259.5000 347.2500 Du        
   1807 ****       115.0000 259.5000 347.5000 Du        
   1808 ****       115.0000 259.5000 347.7500 Du        
   1809 ****       115.0000 259.5000 348.0000 Du        
   1810 ****       115.0000 259.5000 348.2500 Du        
   1811 ****       115.0000 259.5000 348.5000 Du        
   1812 ****       115.0000 259.5000 348.7500 Du        
   1813 ****       115.0000 259.5000 349.0000 Du        
   1814 ****       115.0000 259.5000 349.5000 Du        
   1815 ****       115.0000 259.5000 349.7500 Du        
   1816 ****       115.0000 259.5000 350.0000 Du        
   1817 ****       115.0000 259.5000 350.2500 Du        
   1818 ****       115.0000 259.7500 346.5000 Du        
   1819 ****       115.0000 259.7500 346.7500 Du        
   1820 ****       115.0000 259.7500 347.0000 Du        
   1821 ****       115.0000 259.7500 347.2500 Du        
   1822 ****       115.0000 259.7500 347.5000 Du        
   1823 ****       115.0000 259.7500 347.7500 Du        
   1824 ****       115.0000 259.7500 348.0000 Du        
   1825 ****       115.0000 259.7500 348.2500 Du        
   1826 ****       115.0000 259.7500 348.5000 Du        
   1827 ****       115.0000 259.7500 348.7500 Du        
   1828 ****       115.0000 259.7500 349.0000 Du        
   1829 ****       115.0000 259.7500 349.2500 Du        
   1830 ****       115.0000 259.7500 349.5000 Du        
   1831 ****       115.0000 259.7500 349.7500 Du        
   1832 ****       115.0000 259.7500 350.0000 Du        
   1833 ****       115.0000 259.7500 350.2500 Du        
   1834 ****       115.0000 260.0000 348.5000 Du        
   1835 ****       115.0000 260.0000 348.7500 Du        
   1836 ****       115.0000 260.0000 349.0000 Du        
   1837 ****       115.0000 260.0000 349.2500 Du        
   1838 ****       115.0000 260.0000 349.5000 Du        
   1839 ****       115.0000 260.0000 349.7500 Du        
   1840 ****       115.0000 260.2500 349.2500 Du        
   1841 ****       115.0000 260.2500 349.7500 Du        
   1842 ****       115.2500 259.0000 346.5000 Du        
   1843 ****       115.2500 259.0000 346.7500 Du        
   1844 ****       115.2500 259.0000 347.0000 Du        
   1845 ****       115.2500 259.0000 347.2500 Du        
   1846 ****       115.2500 259.2500 346.2500 Du        
   1847 ****       115.2500 259.2500 346.5000 Du        
   1848 ****       115.2500 259.2500 346.7500 Du        
   1849 ****       115.2500 259.2500 347.0000 Du        
   1850 ****       115.2500 259.2500 347.2500 Du        
   1851 ****       115.2500 259.2500 347.5000 Du        
   1852 ****       115.2500 259.2500 347.7500 Du        
   1853 ****       115.2500 259.2500 348.0000 Du        
   1854 ****       115.2500 259.2500 348.2500 Du        
   1855 ****       115.2500 259.2500 348.5000 Du        
   1856 ****       115.2500 259.2500 348.7500 Du        
   1857 ****       115.2500 259.2500 349.0000 Du        
   1858 ****       115.2500 259.5000 346.2500 Du        
   1859 ****       115.2500 259.5000 346.5000 Du        
   1860 ****       115.2500 259.5000 346.7500 Du        
   1861 ****       115.2500 259.5000 347.0000 Du        
   1862 ****       115.2500 259.5000 347.2500 Du        
   1863 ****       115.2500 259.5000 347.5000 Du        
   1864 ****       115.2500 259.5000 347.7500 Du        
   1865 ****       115.2500 259.5000 348.0000 Du        
   1866 ****       115.2500 259.5000 348.2500 Du        
   1867 ****       115.2500 259.5000 348.5000 Du        
   1868 ****       115.2500 259.5000 348.7500 Du        
   1869 ****       115.2500 259.5000 349.0000 Du        
   1870 ****       115.2500 259.5000 349.2500 Du        
   1871 ****       115.2500 259.5000 349.5000 Du        
   1872 ****       115.2500 259.5000 349.7500 Du        
   1873 ****       115.2500 259.7500 346.5000 Du        
   1874 ****       115.2500 259.7500 346.7500 Du        
   1875 ****       115.2500 259.7500 347.0000 Du        
   1876 ****       115.2500 259.7500 347.2500 Du        
   1877 ****       115.2500 259.7500 347.5000 Du        
   1878 ****       115.2500 259.7500 347.7500 Du        
   1879 ****       115.2500 259.7500 348.0000 Du        
   1880 ****       115.2500 259.7500 348.2500 Du        
   1881 ****       115.2500 259.7500 348.5000 Du        
   1882 ****       115.2500 259.7500 348.7500 Du        
   1883 ****       115.2500 259.7500 349.0000 Du        
   1884 ****       115.2500 259.7500 349.2500 Du        
   1885 ****       115.2500 259.7500 349.5000 Du        
   1886 ****       115.2500 259.7500 349.7500 Du        
   1887 ****       115.2500 259.7500 350.0000 Du        
   1888 ****       115.2500 259.7500 350.2500 Du        
   1889 ****       115.2500 260.0000 348.0000 Du        
   1890 ****       115.2500 260.0000 348.2500 Du        
   1891 ****       115.2500 260.0000 348.5000 Du        
   1892 ****       115.2500 260.0000 348.7500 Du        
   1893 ****       115.2500 260.0000 349.0000 Du        
   1894 ****       115.2500 260.0000 349.2500 Du        
   1895 ****       115.2500 260.0000 349.5000 Du        
   1896 ****       115.2500 260.0000 349.7500 Du        
   1897 ****       115.2500 260.2500 349.2500 Du        
   1898 ****       115.2500 260.2500 349.7500 Du        
   1899 ****       115.5000 255.7500 338.2500 Du        
   1900 ****       115.5000 255.7500 338.5000 Du        
   1901 ****       115.5000 256.0000 338.0000 Du        
   1902 ****       115.5000 256.0000 338.2500 Du        
   1903 ****       115.5000 258.7500 346.7500 Du        
   1904 ****       115.5000 258.7500 347.0000 Du        
   1905 ****       115.5000 258.7500 347.2500 Du        
   1906 ****       115.5000 258.7500 347.5000 Du        
   1907 ****       115.5000 259.0000 346.5000 Du        
   1908 ****       115.5000 259.0000 346.7500 Du        
   1909 ****       115.5000 259.0000 347.0000 Du        
   1910 ****       115.5000 259.0000 347.2500 Du        
   1911 ****       115.5000 259.0000 347.5000 Du        
   1912 ****       115.5000 259.0000 347.7500 Du        
   1913 ****       115.5000 259.0000 348.0000 Du        
   1914 ****       115.5000 259.0000 348.2500 Du        
   1915 ****       115.5000 259.0000 350.2500 Du        
   1916 ****       115.5000 259.2500 346.2500 Du        
   1917 ****       115.5000 259.2500 346.5000 Du        
   1918 ****       115.5000 259.2500 346.7500 Du        
   1919 ****       115.5000 259.2500 347.0000 Du        
   1920 ****       115.5000 259.2500 347.2500 Du        
   1921 ****       115.5000 259.2500 347.5000 Du        
   1922 ****       115.5000 259.2500 347.7500 Du        
   1923 ****       115.5000 259.2500 348.0000 Du        
   1924 ****       115.5000 259.2500 348.2500 Du        
   1925 ****       115.5000 259.2500 348.5000 Du        
   1926 ****       115.5000 259.2500 348.7500 Du        
   1927 ****       115.5000 259.2500 349.0000 Du        
   1928 ****       115.5000 259.2500 349.2500 Du        
   1929 ****       115.5000 259.5000 346.2500 Du        
   1930 ****       115.5000 259.5000 346.5000 Du        
   1931 ****       115.5000 259.5000 346.7500 Du        
   1932 ****       115.5000 259.5000 347.0000 Du        
   1933 ****       115.5000 259.5000 347.2500 Du        
   1934 ****       115.5000 259.5000 347.5000 Du        
   1935 ****       115.5000 259.5000 347.7500 Du        
   1936 ****       115.5000 259.5000 348.0000 Du        
   1937 ****       115.5000 259.5000 348.2500 Du        
   1938 ****       115.5000 259.5000 348.5000 Du        
   1939 ****       115.5000 259.5000 348.7500 Du        
   1940 ****       115.5000 259.5000 349.0000 Du        
   1941 ****       115.5000 259.5000 349.2500 Du        
   1942 ****       115.5000 259.5000 349.5000 Du        
   1943 ****       115.5000 259.7500 346.2500 Du        
   1944 ****       115.5000 259.7500 346.5000 Du        
   1945 ****       115.5000 259.7500 346.7500 Du        
   1946 ****       115.5000 259.7500 347.0000 Du        
   1947 ****       115.5000 259.7500 347.2500 Du        
   1948 ****       115.5000 259.7500 347.5000 Du        
   1949 ****       115.5000 259.7500 347.7500 Du        
   1950 ****       115.5000 259.7500 348.0000 Du        
   1951 ****       115.5000 259.7500 348.2500 Du        
   1952 ****       115.5000 259.7500 348.5000 Du        
   1953 ****       115.5000 259.7500 348.7500 Du        
   1954 ****       115.5000 259.7500 349.0000 Du        
   1955 ****       115.5000 259.7500 349.2500 Du        
   1956 ****       115.5000 259.7500 349.5000 Du        
   1957 ****       115.5000 259.7500 349.7500 Du        
   1958 ****       115.5000 259.7500 350.0000 Du        
   1959 ****       115.5000 260.0000 346.7500 Du        
   1960 ****       115.5000 260.0000 347.0000 Du        
   1961 ****       115.5000 260.0000 347.2500 Du        
   1962 ****       115.5000 260.0000 347.5000 Du        
   1963 ****       115.5000 260.0000 347.7500 Du        
   1964 ****       115.5000 260.0000 348.0000 Du        
   1965 ****       115.5000 260.0000 348.2500 Du        
   1966 ****       115.5000 260.0000 348.5000 Du        
   1967 ****       115.5000 260.0000 348.7500 Du        
   1968 ****       115.5000 260.0000 349.0000 Du        
   1969 ****       115.5000 260.0000 349.2500 Du        
   1970 ****       115.5000 260.0000 349.5000 Du        
   1971 ****       115.5000 260.0000 349.7500 Du        
   1972 ****       115.5000 260.2500 349.2500 Du        
   1973 ****       115.5000 260.2500 349.7500 Du        
   1974 ****       115.7500 255.0000 339.0000 Du        
   1975 ****       115.7500 255.0000 339.2500 Du        
   1976 ****       115.7500 255.0000 339.5000 Du        
   1977 ****       115.7500 255.0000 340.7500 Du        
   1978 ****       115.7500 255.0000 341.0000 Du        
   1979 ****       115.7500 255.0000 341.2500 Du        
   1980 ****       115.7500 255.2500 338.7500 Du        
   1981 ****       115.7500 255.2500 339.0000 Du        
   1982 ****       115.7500 255.2500 339.2500 Du        
   1983 ****       115.7500 255.2500 339.5000 Du        
   1984 ****       115.7500 255.2500 339.7500 Du        
   1985 ****       115.7500 255.2500 340.0000 Du        
   1986 ****       115.7500 255.2500 340.2500 Du        
   1987 ****       115.7500 255.5000 338.5000 Du        
   1988 ****       115.7500 255.5000 338.7500 Du        
   1989 ****       115.7500 255.5000 339.0000 Du        
   1990 ****       115.7500 255.5000 339.2500 Du        
   1991 ****       115.7500 255.5000 339.5000 Du        
   1992 ****       115.7500 255.5000 339.7500 Du        
   1993 ****       115.7500 255.7500 338.2500 Du        
   1994 ****       115.7500 255.7500 338.5000 Du        
   1995 ****       115.7500 255.7500 338.7500 Du        
   1996 ****       115.7500 255.7500 339.0000 Du        
   1997 ****       115.7500 255.7500 339.2500 Du        
   1998 ****       115.7500 255.7500 339.5000 Du        
   1999 ****       115.7500 256.0000 338.0000 Du        
   2000 ****       115.7500 256.0000 338.2500 Du        
   2001 ****       115.7500 256.0000 338.5000 Du        
   2002 ****       115.7500 256.0000 338.7500 Du        
   2003 ****       115.7500 256.0000 339.0000 Du        
   2004 ****       115.7500 256.0000 339.2500 Du        
   2005 ****       115.7500 256.2500 338.0000 Du        
   2006 ****       115.7500 256.2500 338.2500 Du        
   2007 ****       115.7500 256.2500 338.5000 Du        
   2008 ****       115.7500 256.2500 338.7500 Du        
   2009 ****       115.7500 256.5000 338.2500 Du        
   2010 ****       115.7500 258.2500 350.2500 Du        
   2011 ****       115.7500 258.5000 347.0000 Du        
   2012 ****       115.7500 258.5000 347.2500 Du        
   2013 ****       115.7500 258.5000 347.5000 Du        
   2014 ****       115.7500 258.5000 347.7500 Du        
   2015 ****       115.7500 258.5000 348.0000 Du        
   2016 ****       115.7500 258.5000 350.0000 Du        
   2017 ****       115.7500 258.5000 350.2500 Du        
   2018 ****       115.7500 258.7500 346.7500 Du        
   2019 ****       115.7500 258.7500 347.0000 Du        
   2020 ****       115.7500 258.7500 347.2500 Du        
   2021 ****       115.7500 258.7500 347.5000 Du        
   2022 ****       115.7500 258.7500 347.7500 Du        
   2023 ****       115.7500 258.7500 348.0000 Du        
   2024 ****       115.7500 258.7500 348.2500 Du        
   2025 ****       115.7500 258.7500 348.5000 Du        
   2026 ****       115.7500 258.7500 348.7500 Du        
   2027 ****       115.7500 258.7500 349.0000 Du        
   2028 ****       115.7500 258.7500 349.7500 Du        
   2029 ****       115.7500 258.7500 350.0000 Du        
   2030 ****       115.7500 258.7500 350.2500 Du        
   2031 ****       115.7500 259.0000 346.5000 Du        
   2032 ****       115.7500 259.0000 346.7500 Du        
   2033 ****       115.7500 259.0000 347.0000 Du        
   2034 ****       115.7500 259.0000 347.2500 Du        
   2035 ****       115.7500 259.0000 347.5000 Du        
   2036 ****       115.7500 259.0000 347.7500 Du        
   2037 ****       115.7500 259.0000 348.0000 Du        
   2038 ****       115.7500 259.0000 348.2500 Du        
   2039 ****       115.7500 259.0000 348.5000 Du        
   2040 ****       115.7500 259.0000 348.7500 Du        
   2041 ****       115.7500 259.0000 349.0000 Du        
   2042 ****       115.7500 259.0000 349.2500 Du        
   2043 ****       115.7500 259.0000 349.5000 Du        
   2044 ****       115.7500 259.0000 349.7500 Du        
   2045 ****       115.7500 259.0000 350.0000 Du        
   2046 ****       115.7500 259.0000 350.2500 Du        
   2047 ****       115.7500 259.2500 346.2500 Du        
   2048 ****       115.7500 259.2500 346.5000 Du        
   2049 ****       115.7500 259.2500 346.7500 Du        
   2050 ****       115.7500 259.2500 347.0000 Du        
   2051 ****       115.7500 259.2500 347.2500 Du        
   2052 ****       115.7500 259.2500 347.5000 Du        
   2053 ****       115.7500 259.2500 347.7500 Du        
   2054 ****       115.7500 259.2500 348.0000 Du        
   2055 ****       115.7500 259.2500 348.2500 Du        
   2056 ****       115.7500 259.2500 348.5000 Du        
   2057 ****       115.7500 259.2500 348.7500 Du        
   2058 ****       115.7500 259.2500 349.0000 Du        
   2059 ****       115.7500 259.2500 349.2500 Du        
   2060 ****       115.7500 259.2500 349.5000 Du        
   2061 ****       115.7500 259.2500 349.7500 Du        
   2062 ****       115.7500 259.2500 350.0000 Du        
   2063 ****       115.7500 259.2500 350.2500 Du        
   2064 ****       115.7500 259.5000 346.2500 Du        
   2065 ****       115.7500 259.5000 346.5000 Du        
   2066 ****       115.7500 259.5000 346.7500 Du        
   2067 ****       115.7500 259.5000 347.0000 Du        
   2068 ****       115.7500 259.5000 347.2500 Du        
   2069 ****       115.7500 259.5000 347.5000 Du        
   2070 ****       115.7500 259.5000 347.7500 Du        
   2071 ****       115.7500 259.5000 348.0000 Du        
   2072 ****       115.7500 259.5000 348.2500 Du        
   2073 ****       115.7500 259.5000 348.5000 Du        
   2074 ****       115.7500 259.5000 348.7500 Du        
   2075 ****       115.7500 259.5000 349.0000 Du        
   2076 ****       115.7500 259.5000 349.2500 Du        
   2077 ****       115.7500 259.5000 349.5000 Du        
   2078 ****       115.7500 259.5000 349.7500 Du        
   2079 ****       115.7500 259.7500 346.2500 Du        
   2080 ****       115.7500 259.7500 346.5000 Du        
   2081 ****       115.7500 259.7500 346.7500 Du        
   2082 ****       115.7500 259.7500 347.0000 Du        
   2083 ****       115.7500 259.7500 347.2500 Du        
   2084 ****       115.7500 259.7500 347.5000 Du        
   2085 ****       115.7500 259.7500 347.7500 Du        
   2086 ****       115.7500 259.7500 348.0000 Du        
   2087 ****       115.7500 259.7500 348.2500 Du        
   2088 ****       115.7500 259.7500 348.5000 Du        
   2089 ****       115.7500 259.7500 348.7500 Du        
   2090 ****       115.7500 259.7500 349.0000 Du        
   2091 ****       115.7500 259.7500 349.2500 Du        
   2092 ****       115.7500 259.7500 349.5000 Du        
   2093 ****       115.7500 259.7500 349.7500 Du        
   2094 ****       115.7500 259.7500 350.0000 Du        
   2095 ****       115.7500 259.7500 350.2500 Du        
   2096 ****       115.7500 260.0000 346.2500 Du        
   2097 ****       115.7500 260.0000 346.5000 Du        
   2098 ****       115.7500 260.0000 346.7500 Du        
   2099 ****       115.7500 260.0000 347.0000 Du        
   2100 ****       115.7500 260.0000 347.2500 Du        
   2101 ****       115.7500 260.0000 347.5000 Du        
   2102 ****       115.7500 260.0000 347.7500 Du        
   2103 ****       115.7500 260.0000 348.0000 Du        
   2104 ****       115.7500 260.0000 348.2500 Du        
   2105 ****       115.7500 260.0000 348.5000 Du        
   2106 ****       115.7500 260.0000 348.7500 Du        
   2107 ****       115.7500 260.0000 349.0000 Du        
   2108 ****       115.7500 260.0000 349.2500 Du        
   2109 ****       115.7500 260.0000 349.5000 Du        
   2110 ****       115.7500 260.0000 349.7500 Du        
   2111 ****       115.7500 260.2500 349.0000 Du        
   2112 ****       115.7500 260.2500 349.2500 Du        
   2113 ****       115.7500 260.2500 349.5000 Du        
   2114 ****       115.7500 260.2500 349.7500 Du        
   2115 ****       116.0000 254.7500 341.0000 Du        
   2116 ****       116.0000 254.7500 341.2500 Du        
   2117 ****       116.0000 255.0000 338.7500 Du        
   2118 ****       116.0000 255.0000 339.0000 Du        
   2119 ****       116.0000 255.0000 339.2500 Du        
   2120 ****       116.0000 255.0000 339.5000 Du        
   2121 ****       116.0000 255.0000 339.7500 Du        
   2122 ****       116.0000 255.0000 340.0000 Du        
   2123 ****       116.0000 255.0000 340.2500 Du        
   2124 ****       116.0000 255.0000 340.5000 Du        
   2125 ****       116.0000 255.0000 340.7500 Du        
   2126 ****       116.0000 255.0000 341.0000 Du        
   2127 ****       116.0000 255.0000 341.2500 Du        
   2128 ****       116.0000 255.2500 338.5000 Du        
   2129 ****       116.0000 255.2500 338.7500 Du        
   2130 ****       116.0000 255.2500 339.0000 Du        
   2131 ****       116.0000 255.2500 339.2500 Du        
   2132 ****       116.0000 255.2500 339.5000 Du        
   2133 ****       116.0000 255.2500 339.7500 Du        
   2134 ****       116.0000 255.2500 340.0000 Du        
   2135 ****       116.0000 255.2500 340.2500 Du        
   2136 ****       116.0000 255.2500 340.5000 Du        
   2137 ****       116.0000 255.2500 340.7500 Du        
   2138 ****       116.0000 255.2500 341.0000 Du        
   2139 ****       116.0000 255.5000 338.5000 Du        
   2140 ****       116.0000 255.5000 338.7500 Du        
   2141 ****       116.0000 255.5000 339.0000 Du        
   2142 ****       116.0000 255.5000 339.2500 Du        
   2143 ****       116.0000 255.5000 339.5000 Du        
   2144 ****       116.0000 255.5000 339.7500 Du        
   2145 ****       116.0000 255.5000 340.0000 Du        
   2146 ****       116.0000 255.5000 340.2500 Du        
   2147 ****       116.0000 255.5000 340.5000 Du        
   2148 ****       116.0000 255.5000 340.7500 Du        
   2149 ****       116.0000 255.7500 338.2500 Du        
   2150 ****       116.0000 255.7500 338.5000 Du        
   2151 ****       116.0000 255.7500 338.7500 Du        
   2152 ****       116.0000 255.7500 339.0000 Du        
   2153 ****       116.0000 255.7500 339.2500 Du        
   2154 ****       116.0000 255.7500 339.5000 Du        
   2155 ****       116.0000 255.7500 339.7500 Du        
   2156 ****       116.0000 255.7500 340.0000 Du        
   2157 ****       116.0000 255.7500 340.2500 Du        
   2158 ****       116.0000 256.0000 338.0000 Du        
   2159 ****       116.0000 256.0000 338.2500 Du        
   2160 ****       116.0000 256.0000 338.5000 Du        
   2161 ****       116.0000 256.0000 338.7500 Du        
   2162 ****       116.0000 256.0000 339.0000 Du        
   2163 ****       116.0000 256.0000 339.2500 Du        
   2164 ****       116.0000 256.0000 339.5000 Du        
   2165 ****       116.0000 256.0000 339.7500 Du        
   2166 ****       116.0000 256.0000 340.0000 Du        
   2167 ****       116.0000 256.2500 338.0000 Du        
   2168 ****       116.0000 256.2500 338.2500 Du        
   2169 ****       116.0000 256.2500 338.5000 Du        
   2170 ****       116.0000 256.2500 338.7500 Du        
   2171 ****       116.0000 256.2500 339.0000 Du        
   2172 ****       116.0000 256.2500 339.2500 Du        
   2173 ****       116.0000 256.5000 338.2500 Du        
   2174 ****       116.0000 256.5000 338.5000 Du        
   2175 ****       116.0000 256.5000 338.7500 Du        
   2176 ****       116.0000 257.7500 347.7500 Du        
   2177 ****       116.0000 258.0000 347.2500 Du        
   2178 ****       116.0000 258.0000 347.5000 Du        
   2179 ****       116.0000 258.0000 347.7500 Du        
   2180 ****       116.0000 258.0000 348.0000 Du        
   2181 ****       116.0000 258.0000 348.2500 Du        
   2182 ****       116.0000 258.0000 350.0000 Du        
   2183 ****       116.0000 258.0000 350.2500 Du        
   2184 ****       116.0000 258.2500 347.0000 Du        
   2185 ****       116.0000 258.2500 347.2500 Du        
   2186 ****       116.0000 258.2500 347.5000 Du        
   2187 ****       116.0000 258.2500 347.7500 Du        
   2188 ****       116.0000 258.2500 348.0000 Du        
   2189 ****       116.0000 258.2500 348.2500 Du        
   2190 ****       116.0000 258.2500 348.5000 Du        
   2191 ****       116.0000 258.2500 348.7500 Du        
   2192 ****       116.0000 258.2500 349.0000 Du        
   2193 ****       116.0000 258.2500 349.2500 Du        
   2194 ****       116.0000 258.2500 349.5000 Du        
   2195 ****       116.0000 258.2500 349.7500 Du        
   2196 ****       116.0000 258.2500 350.0000 Du        
   2197 ****       116.0000 258.2500 350.2500 Du        
   2198 ****       116.0000 258.5000 347.0000 Du        
   2199 ****       116.0000 258.5000 347.2500 Du        
   2200 ****       116.0000 258.5000 347.5000 Du        
   2201 ****       116.0000 258.5000 347.7500 Du        
   2202 ****       116.0000 258.5000 348.0000 Du        
   2203 ****       116.0000 258.5000 348.2500 Du        
   2204 ****       116.0000 258.5000 348.5000 Du        
   2205 ****       116.0000 258.5000 348.7500 Du        
   2206 ****       116.0000 258.5000 349.0000 Du        
   2207 ****       116.0000 258.5000 349.2500 Du        
   2208 ****       116.0000 258.5000 349.5000 Du        
   2209 ****       116.0000 258.5000 349.7500 Du        
   2210 ****       116.0000 258.5000 350.0000 Du        
   2211 ****       116.0000 258.5000 350.2500 Du        
   2212 ****       116.0000 258.7500 346.7500 Du        
   2213 ****       116.0000 258.7500 347.0000 Du        
   2214 ****       116.0000 258.7500 347.2500 Du        
   2215 ****       116.0000 258.7500 347.5000 Du        
   2216 ****       116.0000 258.7500 347.7500 Du        
   2217 ****       116.0000 258.7500 348.0000 Du        
   2218 ****       116.0000 258.7500 348.2500 Du        
   2219 ****       116.0000 258.7500 348.5000 Du        
   2220 ****       116.0000 258.7500 348.7500 Du        
   2221 ****       116.0000 258.7500 349.0000 Du        
   2222 ****       116.0000 258.7500 349.2500 Du        
   2223 ****       116.0000 258.7500 349.5000 Du        
   2224 ****       116.0000 258.7500 349.7500 Du        
   2225 ****       116.0000 258.7500 350.0000 Du        
   2226 ****       116.0000 258.7500 350.2500 Du        
   2227 ****       116.0000 259.0000 346.7500 Du        
   2228 ****       116.0000 259.0000 347.0000 Du        
   2229 ****       116.0000 259.0000 347.2500 Du        
   2230 ****       116.0000 259.0000 347.5000 Du        
   2231 ****       116.0000 259.0000 347.7500 Du        
   2232 ****       116.0000 259.0000 348.0000 Du        
   2233 ****       116.0000 259.0000 348.2500 Du        
   2234 ****       116.0000 259.0000 348.5000 Du        
   2235 ****       116.0000 259.0000 348.7500 Du        
   2236 ****       116.0000 259.0000 349.0000 Du        
   2237 ****       116.0000 259.0000 349.2500 Du        
   2238 ****       116.0000 259.0000 349.5000 Du        
   2239 ****       116.0000 259.0000 349.7500 Du        
   2240 ****       116.0000 259.0000 350.0000 Du        
   2241 ****       116.0000 259.0000 350.2500 Du        
   2242 ****       116.0000 259.2500 346.5000 Du        
   2243 ****       116.0000 259.2500 346.7500 Du        
   2244 ****       116.0000 259.2500 347.0000 Du        
   2245 ****       116.0000 259.2500 347.2500 Du        
   2246 ****       116.0000 259.2500 347.5000 Du        
   2247 ****       116.0000 259.2500 347.7500 Du        
   2248 ****       116.0000 259.2500 348.0000 Du        
   2249 ****       116.0000 259.2500 348.2500 Du        
   2250 ****       116.0000 259.2500 348.5000 Du        
   2251 ****       116.0000 259.2500 348.7500 Du        
   2252 ****       116.0000 259.2500 349.0000 Du        
   2253 ****       116.0000 259.2500 349.2500 Du        
   2254 ****       116.0000 259.2500 349.5000 Du        
   2255 ****       116.0000 259.2500 349.7500 Du        
   2256 ****       116.0000 259.2500 350.0000 Du        
   2257 ****       116.0000 259.2500 350.2500 Du        
   2258 ****       116.0000 259.5000 346.2500 Du        
   2259 ****       116.0000 259.5000 346.5000 Du        
   2260 ****       116.0000 259.5000 346.7500 Du        
   2261 ****       116.0000 259.5000 347.0000 Du        
   2262 ****       116.0000 259.5000 347.2500 Du        
   2263 ****       116.0000 259.5000 347.5000 Du        
   2264 ****       116.0000 259.5000 347.7500 Du        
   2265 ****       116.0000 259.5000 348.0000 Du        
   2266 ****       116.0000 259.5000 348.2500 Du        
   2267 ****       116.0000 259.5000 348.5000 Du        
   2268 ****       116.0000 259.5000 348.7500 Du        
   2269 ****       116.0000 259.5000 349.0000 Du        
   2270 ****       116.0000 259.5000 349.2500 Du        
   2271 ****       116.0000 259.5000 349.5000 Du        
   2272 ****       116.0000 259.5000 349.7500 Du        
   2273 ****       116.0000 259.5000 350.0000 Du        
   2274 ****       116.0000 259.7500 346.2500 Du        
   2275 ****       116.0000 259.7500 346.5000 Du        
   2276 ****       116.0000 259.7500 346.7500 Du        
   2277 ****       116.0000 259.7500 347.0000 Du        
   2278 ****       116.0000 259.7500 347.2500 Du        
   2279 ****       116.0000 259.7500 347.5000 Du        
   2280 ****       116.0000 259.7500 347.7500 Du        
   2281 ****       116.0000 259.7500 348.0000 Du        
   2282 ****       116.0000 259.7500 348.2500 Du        
   2283 ****       116.0000 259.7500 348.5000 Du        
   2284 ****       116.0000 259.7500 348.7500 Du        
   2285 ****       116.0000 259.7500 349.0000 Du        
   2286 ****       116.0000 259.7500 349.2500 Du        
   2287 ****       116.0000 259.7500 349.5000 Du        
   2288 ****       116.0000 259.7500 349.7500 Du        
   2289 ****       116.0000 259.7500 350.0000 Du        
   2290 ****       116.0000 259.7500 350.2500 Du        
   2291 ****       116.0000 260.0000 346.2500 Du        
   2292 ****       116.0000 260.0000 346.5000 Du        
   2293 ****       116.0000 260.0000 346.7500 Du        
   2294 ****       116.0000 260.0000 347.0000 Du        
   2295 ****       116.0000 260.0000 347.2500 Du        
   2296 ****       116.0000 260.0000 347.5000 Du        
   2297 ****       116.0000 260.0000 347.7500 Du        
   2298 ****       116.0000 260.0000 348.0000 Du        
   2299 ****       116.0000 260.0000 348.2500 Du        
   2300 ****       116.0000 260.0000 348.5000 Du        
   2301 ****       116.0000 260.0000 348.7500 Du        
   2302 ****       116.0000 260.0000 349.0000 Du        
   2303 ****       116.0000 260.0000 349.2500 Du        
   2304 ****       116.0000 260.0000 349.5000 Du        
   2305 ****       116.0000 260.0000 349.7500 Du        
   2306 ****       116.0000 260.2500 346.5000 Du        
   2307 ****       116.0000 260.2500 346.7500 Du        
   2308 ****       116.0000 260.2500 347.0000 Du        
   2309 ****       116.0000 260.2500 347.2500 Du        
   2310 ****       116.2500 254.7500 340.7500 Du        
   2311 ****       116.2500 254.7500 341.0000 Du        
   2312 ****       116.2500 254.7500 341.2500 Du        
   2313 ****       116.2500 255.0000 339.0000 Du        
   2314 ****       116.2500 255.0000 339.2500 Du        
   2315 ****       116.2500 255.0000 339.5000 Du        
   2316 ****       116.2500 255.0000 339.7500 Du        
   2317 ****       116.2500 255.0000 340.0000 Du        
   2318 ****       116.2500 255.0000 340.2500 Du        
   2319 ****       116.2500 255.0000 340.5000 Du        
   2320 ****       116.2500 255.0000 340.7500 Du        
   2321 ****       116.2500 255.0000 341.0000 Du        
   2322 ****       116.2500 255.0000 341.2500 Du        
   2323 ****       116.2500 255.2500 338.7500 Du        
   2324 ****       116.2500 255.2500 339.0000 Du        
   2325 ****       116.2500 255.2500 339.2500 Du        
   2326 ****       116.2500 255.2500 339.5000 Du        
   2327 ****       116.2500 255.2500 339.7500 Du        
   2328 ****       116.2500 255.2500 340.0000 Du        
   2329 ****       116.2500 255.2500 340.2500 Du        
   2330 ****       116.2500 255.2500 340.5000 Du        
   2331 ****       116.2500 255.2500 340.7500 Du        
   2332 ****       116.2500 255.2500 341.0000 Du        
   2333 ****       116.2500 255.5000 338.5000 Du        
   2334 ****       116.2500 255.5000 338.7500 Du        
   2335 ****       116.2500 255.5000 339.0000 Du        
   2336 ****       116.2500 255.5000 339.2500 Du        
   2337 ****       116.2500 255.5000 339.5000 Du        
   2338 ****       116.2500 255.5000 339.7500 Du        
   2339 ****       116.2500 255.5000 340.0000 Du        
   2340 ****       116.2500 255.5000 340.2500 Du        
   2341 ****       116.2500 255.5000 340.5000 Du        
   2342 ****       116.2500 255.5000 340.7500 Du        
   2343 ****       116.2500 255.7500 338.2500 Du        
   2344 ****       116.2500 255.7500 338.5000 Du        
   2345 ****       116.2500 255.7500 338.7500 Du        
   2346 ****       116.2500 255.7500 339.0000 Du        
   2347 ****       116.2500 255.7500 339.2500 Du        
   2348 ****       116.2500 255.7500 339.5000 Du        
   2349 ****       116.2500 255.7500 339.7500 Du        
   2350 ****       116.2500 255.7500 340.0000 Du        
   2351 ****       116.2500 255.7500 340.2500 Du        
   2352 ****       116.2500 255.7500 340.5000 Du        
   2353 ****       116.2500 256.0000 338.0000 Du        
   2354 ****       116.2500 256.0000 338.2500 Du        
   2355 ****       116.2500 256.0000 338.5000 Du        
   2356 ****       116.2500 256.0000 338.7500 Du        
   2357 ****       116.2500 256.0000 339.0000 Du        
   2358 ****       116.2500 256.0000 339.2500 Du        
   2359 ****       116.2500 256.0000 339.5000 Du        
   2360 ****       116.2500 256.0000 339.7500 Du        
   2361 ****       116.2500 256.0000 340.0000 Du        
   2362 ****       116.2500 256.0000 340.2500 Du        
   2363 ****       116.2500 256.2500 338.0000 Du        
   2364 ****       116.2500 256.2500 338.2500 Du        
   2365 ****       116.2500 256.2500 338.5000 Du        
   2366 ****       116.2500 256.2500 338.7500 Du        
   2367 ****       116.2500 256.2500 339.0000 Du        
   2368 ****       116.2500 256.2500 339.2500 Du        
   2369 ****       116.2500 256.2500 339.5000 Du        
   2370 ****       116.2500 256.2500 339.7500 Du        
   2371 ****       116.2500 256.5000 338.2500 Du        
   2372 ****       116.2500 256.5000 338.5000 Du        
   2373 ****       116.2500 256.5000 338.7500 Du        
   2374 ****       116.2500 256.5000 339.0000 Du        
   2375 ****       116.2500 257.0000 347.2500 Du        
   2376 ****       116.2500 257.2500 347.2500 Du        
   2377 ****       116.2500 257.2500 347.5000 Du        
   2378 ****       116.2500 257.2500 347.7500 Du        
   2379 ****       116.2500 257.5000 347.2500 Du        
   2380 ****       116.2500 257.5000 347.5000 Du        
   2381 ****       116.2500 257.5000 347.7500 Du        
   2382 ****       116.2500 257.5000 348.0000 Du        
   2383 ****       116.2500 257.5000 348.2500 Du        
   2384 ****       116.2500 257.7500 347.2500 Du        
   2385 ****       116.2500 257.7500 347.5000 Du        
   2386 ****       116.2500 257.7500 347.7500 Du        
   2387 ****       116.2500 257.7500 348.0000 Du        
   2388 ****       116.2500 257.7500 348.2500 Du        
   2389 ****       116.2500 257.7500 348.5000 Du        
   2390 ****       116.2500 257.7500 348.7500 Du        
   2391 ****       116.2500 257.7500 349.0000 Du        
   2392 ****       116.2500 257.7500 350.2500 Du        
   2393 ****       116.2500 258.0000 347.2500 Du        
   2394 ****       116.2500 258.0000 347.5000 Du        
   2395 ****       116.2500 258.0000 347.7500 Du        
   2396 ****       116.2500 258.0000 348.0000 Du        
   2397 ****       116.2500 258.0000 348.2500 Du        
   2398 ****       116.2500 258.0000 348.5000 Du        
   2399 ****       116.2500 258.0000 348.7500 Du        
   2400 ****       116.2500 258.0000 349.0000 Du        
   2401 ****       116.2500 258.0000 349.2500 Du        
   2402 ****       116.2500 258.0000 349.5000 Du        
   2403 ****       116.2500 258.0000 349.7500 Du        
   2404 ****       116.2500 258.0000 350.0000 Du        
   2405 ****       116.2500 258.0000 350.2500 Du        
   2406 ****       116.2500 258.2500 347.0000 Du        
   2407 ****       116.2500 258.2500 347.2500 Du        
   2408 ****       116.2500 258.2500 347.5000 Du        
   2409 ****       116.2500 258.2500 347.7500 Du        
   2410 ****       116.2500 258.2500 348.0000 Du        
   2411 ****       116.2500 258.2500 348.2500 Du        
   2412 ****       116.2500 258.2500 348.5000 Du        
   2413 ****       116.2500 258.2500 348.7500 Du        
   2414 ****       116.2500 258.2500 349.0000 Du        
   2415 ****       116.2500 258.2500 349.2500 Du        
   2416 ****       116.2500 258.2500 349.5000 Du        
   2417 ****       116.2500 258.2500 349.7500 Du        
   2418 ****       116.2500 258.2500 350.0000 Du        
   2419 ****       116.2500 258.2500 350.2500 Du        
   2420 ****       116.2500 258.5000 347.0000 Du        
   2421 ****       116.2500 258.5000 347.2500 Du        
   2422 ****       116.2500 258.5000 347.5000 Du        
   2423 ****       116.2500 258.5000 347.7500 Du        
   2424 ****       116.2500 258.5000 348.0000 Du        
   2425 ****       116.2500 258.5000 348.2500 Du        
   2426 ****       116.2500 258.5000 348.5000 Du        
   2427 ****       116.2500 258.5000 348.7500 Du        
   2428 ****       116.2500 258.5000 349.0000 Du        
   2429 ****       116.2500 258.5000 349.2500 Du        
   2430 ****       116.2500 258.5000 349.5000 Du        
   2431 ****       116.2500 258.5000 349.7500 Du        
   2432 ****       116.2500 258.5000 350.0000 Du        
   2433 ****       116.2500 258.5000 350.2500 Du        
   2434 ****       116.2500 258.7500 347.0000 Du        
   2435 ****       116.2500 258.7500 347.2500 Du        
   2436 ****       116.2500 258.7500 347.5000 Du        
   2437 ****       116.2500 258.7500 347.7500 Du        
   2438 ****       116.2500 258.7500 348.0000 Du        
   2439 ****       116.2500 258.7500 348.2500 Du        
   2440 ****       116.2500 258.7500 348.5000 Du        
   2441 ****       116.2500 258.7500 348.7500 Du        
   2442 ****       116.2500 258.7500 349.0000 Du        
   2443 ****       116.2500 258.7500 349.2500 Du        
   2444 ****       116.2500 258.7500 349.5000 Du        
   2445 ****       116.2500 258.7500 349.7500 Du        
   2446 ****       116.2500 258.7500 350.0000 Du        
   2447 ****       116.2500 258.7500 350.2500 Du        
   2448 ****       116.2500 259.0000 346.7500 Du        
   2449 ****       116.2500 259.0000 347.0000 Du        
   2450 ****       116.2500 259.0000 347.2500 Du        
   2451 ****       116.2500 259.0000 347.5000 Du        
   2452 ****       116.2500 259.0000 347.7500 Du        
   2453 ****       116.2500 259.0000 348.0000 Du        
   2454 ****       116.2500 259.0000 348.2500 Du        
   2455 ****       116.2500 259.0000 348.5000 Du        
   2456 ****       116.2500 259.0000 348.7500 Du        
   2457 ****       116.2500 259.0000 349.0000 Du        
   2458 ****       116.2500 259.0000 349.2500 Du        
   2459 ****       116.2500 259.0000 349.5000 Du        
   2460 ****       116.2500 259.0000 349.7500 Du        
   2461 ****       116.2500 259.0000 350.0000 Du        
   2462 ****       116.2500 259.0000 350.2500 Du        
   2463 ****       116.2500 259.2500 346.5000 Du        
   2464 ****       116.2500 259.2500 346.7500 Du        
   2465 ****       116.2500 259.2500 347.0000 Du        
   2466 ****       116.2500 259.2500 347.2500 Du        
   2467 ****       116.2500 259.2500 347.5000 Du        
   2468 ****       116.2500 259.2500 347.7500 Du        
   2469 ****       116.2500 259.2500 348.0000 Du        
   2470 ****       116.2500 259.2500 348.2500 Du        
   2471 ****       116.2500 259.2500 348.5000 Du        
   2472 ****       116.2500 259.2500 348.7500 Du        
   2473 ****       116.2500 259.2500 349.0000 Du        
   2474 ****       116.2500 259.2500 349.2500 Du        
   2475 ****       116.2500 259.2500 349.5000 Du        
   2476 ****       116.2500 259.2500 349.7500 Du        
   2477 ****       116.2500 259.2500 350.0000 Du        
   2478 ****       116.2500 259.2500 350.2500 Du        
   2479 ****       116.2500 259.5000 346.2500 Du        
   2480 ****       116.2500 259.5000 346.5000 Du        
   2481 ****       116.2500 259.5000 346.7500 Du        
   2482 ****       116.2500 259.5000 347.0000 Du        
   2483 ****       116.2500 259.5000 347.2500 Du        
   2484 ****       116.2500 259.5000 347.5000 Du        
   2485 ****       116.2500 259.5000 347.7500 Du        
   2486 ****       116.2500 259.5000 348.0000 Du        
   2487 ****       116.2500 259.5000 348.2500 Du        
   2488 ****       116.2500 259.5000 348.5000 Du        
   2489 ****       116.2500 259.5000 348.7500 Du        
   2490 ****       116.2500 259.5000 349.0000 Du        
   2491 ****       116.2500 259.5000 349.2500 Du        
   2492 ****       116.2500 259.5000 349.7500 Du        
   2493 ****       116.2500 259.7500 346.2500 Du        
   2494 ****       116.2500 259.7500 346.5000 Du        
   2495 ****       116.2500 259.7500 346.7500 Du        
   2496 ****       116.2500 259.7500 347.0000 Du        
   2497 ****       116.2500 259.7500 347.2500 Du        
   2498 ****       116.2500 259.7500 347.5000 Du        
   2499 ****       116.2500 259.7500 347.7500 Du        
   2500 ****       116.2500 259.7500 348.0000 Du        
   2501 ****       116.2500 259.7500 348.2500 Du        
   2502 ****       116.2500 259.7500 348.5000 Du        
   2503 ****       116.2500 259.7500 348.7500 Du        
   2504 ****       116.2500 259.7500 349.0000 Du        
   2505 ****       116.2500 259.7500 349.2500 Du        
   2506 ****       116.2500 260.0000 346.2500 Du        
   2507 ****       116.2500 260.0000 346.5000 Du        
   2508 ****       116.2500 260.0000 346.7500 Du        
   2509 ****       116.2500 260.0000 347.0000 Du        
   2510 ****       116.2500 260.0000 347.2500 Du        
   2511 ****       116.2500 260.0000 347.5000 Du        
   2512 ****       116.2500 260.0000 347.7500 Du        
   2513 ****       116.2500 260.0000 348.0000 Du        
   2514 ****       116.2500 260.2500 346.2500 Du        
   2515 ****       116.2500 260.2500 346.5000 Du        
   2516 ****       116.2500 260.2500 346.7500 Du        
   2517 ****       116.2500 260.2500 347.0000 Du        
   2518 ****       116.2500 260.2500 347.2500 Du        
   2519 ****       116.5000 254.7500 339.2500 Du        
   2520 ****       116.5000 254.7500 339.5000 Du        
   2521 ****       116.5000 254.7500 339.7500 Du        
   2522 ****       116.5000 254.7500 340.5000 Du        
   2523 ****       116.5000 254.7500 340.7500 Du        
   2524 ****       116.5000 254.7500 341.0000 Du        
   2525 ****       116.5000 254.7500 341.2500 Du        
   2526 ****       116.5000 255.0000 339.0000 Du        
   2527 ****       116.5000 255.0000 339.2500 Du        
   2528 ****       116.5000 255.0000 339.5000 Du        
   2529 ****       116.5000 255.0000 339.7500 Du        
   2530 ****       116.5000 255.0000 340.0000 Du        
   2531 ****       116.5000 255.0000 340.2500 Du        
   2532 ****       116.5000 255.0000 340.5000 Du        
   2533 ****       116.5000 255.0000 340.7500 Du        
   2534 ****       116.5000 255.0000 341.0000 Du        
   2535 ****       116.5000 255.0000 341.2500 Du        
   2536 ****       116.5000 255.2500 338.7500 Du        
   2537 ****       116.5000 255.2500 339.0000 Du        
   2538 ****       116.5000 255.2500 339.2500 Du        
   2539 ****       116.5000 255.2500 339.5000 Du        
   2540 ****       116.5000 255.2500 339.7500 Du        
   2541 ****       116.5000 255.2500 340.0000 Du        
   2542 ****       116.5000 255.2500 340.2500 Du        
   2543 ****       116.5000 255.2500 340.5000 Du        
   2544 ****       116.5000 255.2500 340.7500 Du        
   2545 ****       116.5000 255.2500 341.0000 Du        
   2546 ****       116.5000 255.5000 338.5000 Du        
   2547 ****       116.5000 255.5000 338.7500 Du        
   2548 ****       116.5000 255.5000 339.0000 Du        
   2549 ****       116.5000 255.5000 339.2500 Du        
   2550 ****       116.5000 255.5000 339.5000 Du        
   2551 ****       116.5000 255.5000 339.7500 Du        
   2552 ****       116.5000 255.5000 340.0000 Du        
   2553 ****       116.5000 255.5000 340.2500 Du        
   2554 ****       116.5000 255.5000 340.5000 Du        
   2555 ****       116.5000 255.5000 340.7500 Du        
   2556 ****       116.5000 255.5000 341.0000 Du        
   2557 ****       116.5000 255.7500 338.2500 Du        
   2558 ****       116.5000 255.7500 338.5000 Du        
   2559 ****       116.5000 255.7500 338.7500 Du        
   2560 ****       116.5000 255.7500 339.0000 Du        
   2561 ****       116.5000 255.7500 339.2500 Du        
   2562 ****       116.5000 255.7500 339.5000 Du        
   2563 ****       116.5000 255.7500 339.7500 Du        
   2564 ****       116.5000 255.7500 340.0000 Du        
   2565 ****       116.5000 255.7500 340.2500 Du        
   2566 ****       116.5000 255.7500 340.5000 Du        
   2567 ****       116.5000 255.7500 340.7500 Du        
   2568 ****       116.5000 256.0000 338.0000 Du        
   2569 ****       116.5000 256.0000 338.2500 Du        
   2570 ****       116.5000 256.0000 338.5000 Du        
   2571 ****       116.5000 256.0000 338.7500 Du        
   2572 ****       116.5000 256.0000 339.0000 Du        
   2573 ****       116.5000 256.0000 339.2500 Du        
   2574 ****       116.5000 256.0000 339.5000 Du        
   2575 ****       116.5000 256.0000 339.7500 Du        
   2576 ****       116.5000 256.0000 340.0000 Du        
   2577 ****       116.5000 256.0000 340.2500 Du        
   2578 ****       116.5000 256.0000 340.5000 Du        
   2579 ****       116.5000 256.2500 338.0000 Du        
   2580 ****       116.5000 256.2500 338.2500 Du        
   2581 ****       116.5000 256.2500 338.5000 Du        
   2582 ****       116.5000 256.2500 338.7500 Du        
   2583 ****       116.5000 256.2500 339.0000 Du        
   2584 ****       116.5000 256.2500 339.2500 Du        
   2585 ****       116.5000 256.2500 339.5000 Du        
   2586 ****       116.5000 256.2500 339.7500 Du        
   2587 ****       116.5000 256.2500 340.0000 Du        
   2588 ****       116.5000 256.5000 338.2500 Du        
   2589 ****       116.5000 256.5000 338.5000 Du        
   2590 ****       116.5000 256.5000 338.7500 Du        
   2591 ****       116.5000 256.5000 339.0000 Du        
   2592 ****       116.5000 256.5000 339.2500 Du        
   2593 ****       116.5000 256.7500 338.5000 Du        
   2594 ****       116.5000 256.7500 338.7500 Du        
   2595 ****       116.5000 257.0000 347.2500 Du        
   2596 ****       116.5000 257.0000 347.5000 Du        
   2597 ****       116.5000 257.0000 347.7500 Du        
   2598 ****       116.5000 257.2500 347.2500 Du        
   2599 ****       116.5000 257.2500 347.5000 Du        
   2600 ****       116.5000 257.2500 347.7500 Du        
   2601 ****       116.5000 257.2500 348.0000 Du        
   2602 ****       116.5000 257.5000 347.2500 Du        
   2603 ****       116.5000 257.5000 347.5000 Du        
   2604 ****       116.5000 257.5000 347.7500 Du        
   2605 ****       116.5000 257.5000 348.0000 Du        
   2606 ****       116.5000 257.5000 348.2500 Du        
   2607 ****       116.5000 257.7500 347.2500 Du        
   2608 ****       116.5000 257.7500 347.5000 Du        
   2609 ****       116.5000 257.7500 347.7500 Du        
   2610 ****       116.5000 257.7500 348.0000 Du        
   2611 ****       116.5000 257.7500 348.2500 Du        
   2612 ****       116.5000 257.7500 348.5000 Du        
   2613 ****       116.5000 257.7500 348.7500 Du        
   2614 ****       116.5000 258.0000 347.2500 Du        
   2615 ****       116.5000 258.0000 347.5000 Du        
   2616 ****       116.5000 258.0000 347.7500 Du        
   2617 ****       116.5000 258.0000 348.0000 Du        
   2618 ****       116.5000 258.0000 348.2500 Du        
   2619 ****       116.5000 258.0000 348.5000 Du        
   2620 ****       116.5000 258.0000 348.7500 Du        
   2621 ****       116.5000 258.0000 349.0000 Du        
   2622 ****       116.5000 258.0000 349.2500 Du        
   2623 ****       116.5000 258.0000 349.5000 Du        
   2624 ****       116.5000 258.0000 349.7500 Du        
   2625 ****       116.5000 258.0000 350.0000 Du        
   2626 ****       116.5000 258.0000 350.2500 Du        
   2627 ****       116.5000 258.2500 347.0000 Du        
   2628 ****       116.5000 258.2500 347.2500 Du        
   2629 ****       116.5000 258.2500 347.5000 Du        
   2630 ****       116.5000 258.2500 347.7500 Du        
   2631 ****       116.5000 258.2500 348.0000 Du        
   2632 ****       116.5000 258.2500 348.2500 Du        
   2633 ****       116.5000 258.2500 348.5000 Du        
   2634 ****       116.5000 258.2500 348.7500 Du        
   2635 ****       116.5000 258.2500 349.0000 Du        
   2636 ****       116.5000 258.2500 349.2500 Du        
   2637 ****       116.5000 258.2500 349.5000 Du        
   2638 ****       116.5000 258.2500 349.7500 Du        
   2639 ****       116.5000 258.2500 350.0000 Du        
   2640 ****       116.5000 258.2500 350.2500 Du        
   2641 ****       116.5000 258.5000 347.0000 Du        
   2642 ****       116.5000 258.5000 347.2500 Du        
   2643 ****       116.5000 258.5000 347.5000 Du        
   2644 ****       116.5000 258.5000 347.7500 Du        
   2645 ****       116.5000 258.5000 348.0000 Du        
   2646 ****       116.5000 258.5000 348.2500 Du        
   2647 ****       116.5000 258.5000 348.5000 Du        
   2648 ****       116.5000 258.5000 348.7500 Du        
   2649 ****       116.5000 258.5000 349.0000 Du        
   2650 ****       116.5000 258.5000 349.2500 Du        
   2651 ****       116.5000 258.5000 349.5000 Du        
   2652 ****       116.5000 258.5000 349.7500 Du        
   2653 ****       116.5000 258.5000 350.0000 Du        
   2654 ****       116.5000 258.5000 350.2500 Du        
   2655 ****       116.5000 258.7500 347.0000 Du        
   2656 ****       116.5000 258.7500 347.2500 Du        
   2657 ****       116.5000 258.7500 347.5000 Du        
   2658 ****       116.5000 258.7500 347.7500 Du        
   2659 ****       116.5000 258.7500 348.0000 Du        
   2660 ****       116.5000 258.7500 348.2500 Du        
   2661 ****       116.5000 258.7500 348.5000 Du        
   2662 ****       116.5000 258.7500 348.7500 Du        
   2663 ****       116.5000 258.7500 349.0000 Du        
   2664 ****       116.5000 258.7500 349.2500 Du        
   2665 ****       116.5000 258.7500 349.5000 Du        
   2666 ****       116.5000 258.7500 349.7500 Du        
   2667 ****       116.5000 258.7500 350.0000 Du        
   2668 ****       116.5000 258.7500 350.2500 Du        
   2669 ****       116.5000 259.0000 346.7500 Du        
   2670 ****       116.5000 259.0000 347.0000 Du        
   2671 ****       116.5000 259.0000 347.2500 Du        
   2672 ****       116.5000 259.0000 347.5000 Du        
   2673 ****       116.5000 259.0000 347.7500 Du        
   2674 ****       116.5000 259.0000 348.0000 Du        
   2675 ****       116.5000 259.0000 348.2500 Du        
   2676 ****       116.5000 259.0000 348.5000 Du        
   2677 ****       116.5000 259.0000 348.7500 Du        
   2678 ****       116.5000 259.0000 349.0000 Du        
   2679 ****       116.5000 259.0000 349.2500 Du        
   2680 ****       116.5000 259.0000 349.5000 Du        
   2681 ****       116.5000 259.0000 349.7500 Du        
   2682 ****       116.5000 259.0000 350.0000 Du        
   2683 ****       116.5000 259.0000 350.2500 Du        
   2684 ****       116.5000 259.2500 346.5000 Du        
   2685 ****       116.5000 259.2500 346.7500 Du        
   2686 ****       116.5000 259.2500 347.0000 Du        
   2687 ****       116.5000 259.2500 347.2500 Du        
   2688 ****       116.5000 259.2500 347.5000 Du        
   2689 ****       116.5000 259.2500 347.7500 Du        
   2690 ****       116.5000 259.2500 348.0000 Du        
   2691 ****       116.5000 259.2500 348.2500 Du        
   2692 ****       116.5000 259.2500 348.5000 Du        
   2693 ****       116.5000 259.2500 348.7500 Du        
   2694 ****       116.5000 259.2500 349.0000 Du        
   2695 ****       116.5000 259.2500 349.2500 Du        
   2696 ****       116.5000 259.2500 349.7500 Du        
   2697 ****       116.5000 259.2500 350.0000 Du        
   2698 ****       116.5000 259.2500 350.2500 Du        
   2699 ****       116.5000 259.5000 346.5000 Du        
   2700 ****       116.5000 259.5000 346.7500 Du        
   2701 ****       116.5000 259.5000 347.0000 Du        
   2702 ****       116.5000 259.5000 347.2500 Du        
   2703 ****       116.5000 259.5000 347.5000 Du        
   2704 ****       116.5000 259.5000 347.7500 Du        
   2705 ****       116.5000 259.5000 348.0000 Du        
   2706 ****       116.5000 259.5000 348.2500 Du        
   2707 ****       116.5000 259.7500 346.2500 Du        
   2708 ****       116.5000 259.7500 346.5000 Du        
   2709 ****       116.5000 259.7500 346.7500 Du        
   2710 ****       116.5000 259.7500 347.0000 Du        
   2711 ****       116.5000 259.7500 347.2500 Du        
   2712 ****       116.5000 259.7500 347.5000 Du        
   2713 ****       116.5000 259.7500 347.7500 Du        
   2714 ****       116.5000 260.0000 346.0000 Du        
   2715 ****       116.5000 260.0000 346.2500 Du        
   2716 ****       116.5000 260.0000 346.5000 Du        
   2717 ****       116.5000 260.0000 346.7500 Du        
   2718 ****       116.5000 260.0000 347.0000 Du        
   2719 ****       116.5000 260.0000 347.2500 Du        
   2720 ****       116.5000 260.2500 346.2500 Du        
   2721 ****       116.5000 260.2500 346.5000 Du        
   2722 ****       116.5000 260.2500 346.7500 Du        
   2723 ****       116.5000 260.2500 347.0000 Du        
   2724 ****       116.7500 254.7500 339.2500 Du        
   2725 ****       116.7500 254.7500 339.5000 Du        
   2726 ****       116.7500 254.7500 339.7500 Du        
   2727 ****       116.7500 254.7500 340.0000 Du        
   2728 ****       116.7500 254.7500 340.2500 Du        
   2729 ****       116.7500 254.7500 340.5000 Du        
   2730 ****       116.7500 254.7500 340.7500 Du        
   2731 ****       116.7500 254.7500 341.0000 Du        
   2732 ****       116.7500 254.7500 341.2500 Du        
   2733 ****       116.7500 255.0000 339.0000 Du        
   2734 ****       116.7500 255.0000 339.2500 Du        
   2735 ****       116.7500 255.0000 339.5000 Du        
   2736 ****       116.7500 255.0000 339.7500 Du        
   2737 ****       116.7500 255.0000 340.0000 Du        
   2738 ****       116.7500 255.0000 340.2500 Du        
   2739 ****       116.7500 255.0000 340.5000 Du        
   2740 ****       116.7500 255.0000 340.7500 Du        
   2741 ****       116.7500 255.0000 341.0000 Du        
   2742 ****       116.7500 255.0000 341.2500 Du        
   2743 ****       116.7500 255.2500 338.7500 Du        
   2744 ****       116.7500 255.2500 339.0000 Du        
   2745 ****       116.7500 255.2500 339.2500 Du        
   2746 ****       116.7500 255.2500 339.5000 Du        
   2747 ****       116.7500 255.2500 339.7500 Du        
   2748 ****       116.7500 255.2500 340.0000 Du        
   2749 ****       116.7500 255.2500 340.2500 Du        
   2750 ****       116.7500 255.2500 340.5000 Du        
   2751 ****       116.7500 255.2500 340.7500 Du        
   2752 ****       116.7500 255.2500 341.0000 Du        
   2753 ****       116.7500 255.5000 338.5000 Du        
   2754 ****       116.7500 255.5000 338.7500 Du        
   2755 ****       116.7500 255.5000 339.0000 Du        
   2756 ****       116.7500 255.5000 339.2500 Du        
   2757 ****       116.7500 255.5000 339.5000 Du        
   2758 ****       116.7500 255.5000 339.7500 Du        
   2759 ****       116.7500 255.5000 340.0000 Du        
   2760 ****       116.7500 255.5000 340.2500 Du        
   2761 ****       116.7500 255.5000 340.5000 Du        
   2762 ****       116.7500 255.5000 340.7500 Du        
   2763 ****       116.7500 255.5000 341.0000 Du        
   2764 ****       116.7500 255.7500 338.2500 Du        
   2765 ****       116.7500 255.7500 338.5000 Du        
   2766 ****       116.7500 255.7500 338.7500 Du        
   2767 ****       116.7500 255.7500 339.0000 Du        
   2768 ****       116.7500 255.7500 339.2500 Du        
   2769 ****       116.7500 255.7500 339.5000 Du        
   2770 ****       116.7500 255.7500 339.7500 Du        
   2771 ****       116.7500 255.7500 340.0000 Du        
   2772 ****       116.7500 255.7500 340.2500 Du        
   2773 ****       116.7500 255.7500 340.5000 Du        
   2774 ****       116.7500 255.7500 340.7500 Du        
   2775 ****       116.7500 256.0000 338.0000 Du        
   2776 ****       116.7500 256.0000 338.2500 Du        
   2777 ****       116.7500 256.0000 338.5000 Du        
   2778 ****       116.7500 256.0000 338.7500 Du        
   2779 ****       116.7500 256.0000 339.0000 Du        
   2780 ****       116.7500 256.0000 339.2500 Du        
   2781 ****       116.7500 256.0000 339.5000 Du        
   2782 ****       116.7500 256.0000 339.7500 Du        
   2783 ****       116.7500 256.0000 340.0000 Du        
   2784 ****       116.7500 256.0000 340.2500 Du        
   2785 ****       116.7500 256.0000 340.5000 Du        
   2786 ****       116.7500 256.2500 338.0000 Du        
   2787 ****       116.7500 256.2500 338.2500 Du        
   2788 ****       116.7500 256.2500 338.5000 Du        
   2789 ****       116.7500 256.2500 338.7500 Du        
   2790 ****       116.7500 256.2500 339.0000 Du        
   2791 ****       116.7500 256.2500 339.2500 Du        
   2792 ****       116.7500 256.2500 339.5000 Du        
   2793 ****       116.7500 256.2500 339.7500 Du        
   2794 ****       116.7500 256.2500 340.0000 Du        
   2795 ****       116.7500 256.2500 340.2500 Du        
   2796 ****       116.7500 256.5000 338.2500 Du        
   2797 ****       116.7500 256.5000 338.5000 Du        
   2798 ****       116.7500 256.5000 338.7500 Du        
   2799 ****       116.7500 256.5000 339.0000 Du        
   2800 ****       116.7500 256.5000 339.2500 Du        
   2801 ****       116.7500 256.5000 339.5000 Du        
   2802 ****       116.7500 256.5000 339.7500 Du        
   2803 ****       116.7500 256.7500 338.5000 Du        
   2804 ****       116.7500 256.7500 338.7500 Du        
   2805 ****       116.7500 256.7500 339.0000 Du        
   2806 ****       116.7500 257.0000 347.2500 Du        
   2807 ****       116.7500 257.0000 347.5000 Du        
   2808 ****       116.7500 257.0000 347.7500 Du        
   2809 ****       116.7500 257.2500 347.2500 Du        
   2810 ****       116.7500 257.2500 347.5000 Du        
   2811 ****       116.7500 257.2500 347.7500 Du        
   2812 ****       116.7500 257.2500 348.0000 Du        
   2813 ****       116.7500 257.5000 347.2500 Du        
   2814 ****       116.7500 257.5000 347.5000 Du        
   2815 ****       116.7500 257.5000 347.7500 Du        
   2816 ****       116.7500 257.5000 348.0000 Du        
   2817 ****       116.7500 257.5000 348.2500 Du        
   2818 ****       116.7500 257.7500 347.2500 Du        
   2819 ****       116.7500 257.7500 347.5000 Du        
   2820 ****       116.7500 257.7500 347.7500 Du        
   2821 ****       116.7500 257.7500 348.0000 Du        
   2822 ****       116.7500 257.7500 348.2500 Du        
   2823 ****       116.7500 257.7500 348.5000 Du        
   2824 ****       116.7500 257.7500 348.7500 Du        
   2825 ****       116.7500 258.0000 347.2500 Du        
   2826 ****       116.7500 258.0000 347.5000 Du        
   2827 ****       116.7500 258.0000 347.7500 Du        
   2828 ****       116.7500 258.0000 348.0000 Du        
   2829 ****       116.7500 258.0000 348.2500 Du        
   2830 ****       116.7500 258.0000 348.5000 Du        
   2831 ****       116.7500 258.0000 348.7500 Du        
   2832 ****       116.7500 258.0000 349.0000 Du        
   2833 ****       116.7500 258.0000 349.2500 Du        
   2834 ****       116.7500 258.2500 347.0000 Du        
   2835 ****       116.7500 258.2500 347.2500 Du        
   2836 ****       116.7500 258.2500 347.5000 Du        
   2837 ****       116.7500 258.2500 347.7500 Du        
   2838 ****       116.7500 258.2500 348.0000 Du        
   2839 ****       116.7500 258.2500 348.2500 Du        
   2840 ****       116.7500 258.2500 348.5000 Du        
   2841 ****       116.7500 258.2500 348.7500 Du        
   2842 ****       116.7500 258.2500 349.0000 Du        
   2843 ****       116.7500 258.2500 349.2500 Du        
   2844 ****       116.7500 258.2500 349.5000 Du        
   2845 ****       116.7500 258.2500 349.7500 Du        
   2846 ****       116.7500 258.2500 350.0000 Du        
   2847 ****       116.7500 258.2500 350.2500 Du        
   2848 ****       116.7500 258.5000 347.0000 Du        
   2849 ****       116.7500 258.5000 347.2500 Du        
   2850 ****       116.7500 258.5000 347.5000 Du        
   2851 ****       116.7500 258.5000 347.7500 Du        
   2852 ****       116.7500 258.5000 348.0000 Du        
   2853 ****       116.7500 258.5000 348.2500 Du        
   2854 ****       116.7500 258.5000 348.5000 Du        
   2855 ****       116.7500 258.5000 348.7500 Du        
   2856 ****       116.7500 258.5000 349.0000 Du        
   2857 ****       116.7500 258.5000 349.2500 Du        
   2858 ****       116.7500 258.5000 349.5000 Du        
   2859 ****       116.7500 258.5000 349.7500 Du        
   2860 ****       116.7500 258.5000 350.0000 Du        
   2861 ****       116.7500 258.5000 350.2500 Du        
   2862 ****       116.7500 258.7500 347.0000 Du        
   2863 ****       116.7500 258.7500 347.2500 Du        
   2864 ****       116.7500 258.7500 347.5000 Du        
   2865 ****       116.7500 258.7500 347.7500 Du        
   2866 ****       116.7500 258.7500 348.0000 Du        
   2867 ****       116.7500 258.7500 348.2500 Du        
   2868 ****       116.7500 258.7500 348.5000 Du        
   2869 ****       116.7500 258.7500 348.7500 Du        
   2870 ****       116.7500 258.7500 349.0000 Du        
   2871 ****       116.7500 258.7500 349.2500 Du        
   2872 ****       116.7500 258.7500 349.5000 Du        
   2873 ****       116.7500 258.7500 349.7500 Du        
   2874 ****       116.7500 258.7500 350.0000 Du        
   2875 ****       116.7500 258.7500 350.2500 Du        
   2876 ****       116.7500 259.0000 346.7500 Du        
   2877 ****       116.7500 259.0000 347.0000 Du        
   2878 ****       116.7500 259.0000 347.2500 Du        
   2879 ****       116.7500 259.0000 347.5000 Du        
   2880 ****       116.7500 259.0000 347.7500 Du        
   2881 ****       116.7500 259.0000 348.0000 Du        
   2882 ****       116.7500 259.0000 348.2500 Du        
   2883 ****       116.7500 259.0000 349.2500 Du        
   2884 ****       116.7500 259.0000 349.5000 Du        
   2885 ****       116.7500 259.0000 349.7500 Du        
   2886 ****       116.7500 259.0000 350.0000 Du        
   2887 ****       116.7500 259.0000 350.2500 Du        
   2888 ****       116.7500 259.2500 346.7500 Du        
   2889 ****       116.7500 259.2500 347.0000 Du        
   2890 ****       116.7500 259.2500 347.2500 Du        
   2891 ****       116.7500 259.2500 347.5000 Du        
   2892 ****       116.7500 259.2500 347.7500 Du        
   2893 ****       116.7500 259.2500 348.0000 Du        
   2894 ****       116.7500 259.2500 350.2500 Du        
   2895 ****       116.7500 259.5000 346.5000 Du        
   2896 ****       116.7500 259.5000 346.7500 Du        
   2897 ****       116.7500 259.5000 347.0000 Du        
   2898 ****       116.7500 259.5000 347.2500 Du        
   2899 ****       116.7500 259.7500 346.2500 Du        
   2900 ****       116.7500 259.7500 346.5000 Du        
   2901 ****       116.7500 259.7500 346.7500 Du        
   2902 ****       116.7500 259.7500 347.0000 Du        
   2903 ****       116.7500 259.7500 347.2500 Du        
   2904 ****       116.7500 260.0000 346.2500 Du        
   2905 ****       116.7500 260.0000 346.5000 Du        
   2906 ****       116.7500 260.0000 346.7500 Du        
   2907 ****       116.7500 260.0000 347.0000 Du        
   2908 ****       116.7500 260.2500 346.2500 Du        
   2909 ****       116.7500 260.2500 346.5000 Du        
   2910 ****       116.7500 260.2500 346.7500 Du        
   2911 ****       116.7500 260.5000 346.2500 Du        
   2912 ****       116.7500 260.5000 346.5000 Du        
   2913 ****       117.0000 254.7500 339.2500 Du        
   2914 ****       117.0000 254.7500 339.5000 Du        
   2915 ****       117.0000 254.7500 339.7500 Du        
   2916 ****       117.0000 254.7500 340.0000 Du        
   2917 ****       117.0000 254.7500 340.2500 Du        
   2918 ****       117.0000 254.7500 340.5000 Du        
   2919 ****       117.0000 254.7500 340.7500 Du        
   2920 ****       117.0000 254.7500 341.0000 Du        
   2921 ****       117.0000 254.7500 341.2500 Du        
   2922 ****       117.0000 255.0000 339.0000 Du        
   2923 ****       117.0000 255.0000 339.2500 Du        
   2924 ****       117.0000 255.0000 339.5000 Du        
   2925 ****       117.0000 255.0000 339.7500 Du        
   2926 ****       117.0000 255.0000 340.0000 Du        
   2927 ****       117.0000 255.0000 340.2500 Du        
   2928 ****       117.0000 255.0000 340.5000 Du        
   2929 ****       117.0000 255.0000 340.7500 Du        
   2930 ****       117.0000 255.0000 341.0000 Du        
   2931 ****       117.0000 255.0000 341.2500 Du        
   2932 ****       117.0000 255.2500 338.7500 Du        
   2933 ****       117.0000 255.2500 339.0000 Du        
   2934 ****       117.0000 255.2500 339.2500 Du        
   2935 ****       117.0000 255.2500 339.5000 Du        
   2936 ****       117.0000 255.2500 339.7500 Du        
   2937 ****       117.0000 255.2500 340.0000 Du        
   2938 ****       117.0000 255.2500 340.2500 Du        
   2939 ****       117.0000 255.2500 340.5000 Du        
   2940 ****       117.0000 255.2500 340.7500 Du        
   2941 ****       117.0000 255.2500 341.0000 Du        
   2942 ****       117.0000 255.5000 338.5000 Du        
   2943 ****       117.0000 255.5000 338.7500 Du        
   2944 ****       117.0000 255.5000 339.0000 Du        
   2945 ****       117.0000 255.5000 339.2500 Du        
   2946 ****       117.0000 255.5000 339.5000 Du        
   2947 ****       117.0000 255.5000 339.7500 Du        
   2948 ****       117.0000 255.5000 340.0000 Du        
   2949 ****       117.0000 255.5000 340.2500 Du        
   2950 ****       117.0000 255.5000 340.5000 Du        
   2951 ****       117.0000 255.5000 340.7500 Du        
   2952 ****       117.0000 255.5000 341.0000 Du        
   2953 ****       117.0000 255.7500 338.2500 Du        
   2954 ****       117.0000 255.7500 338.5000 Du        
   2955 ****       117.0000 255.7500 338.7500 Du        
   2956 ****       117.0000 255.7500 339.0000 Du        
   2957 ****       117.0000 255.7500 339.2500 Du        
   2958 ****       117.0000 255.7500 339.5000 Du        
   2959 ****       117.0000 255.7500 339.7500 Du        
   2960 ****       117.0000 255.7500 340.0000 Du        
   2961 ****       117.0000 255.7500 340.2500 Du        
   2962 ****       117.0000 255.7500 340.5000 Du        
   2963 ****       117.0000 255.7500 340.7500 Du        
   2964 ****       117.0000 256.0000 338.2500 Du        
   2965 ****       117.0000 256.0000 338.5000 Du        
   2966 ****       117.0000 256.0000 338.7500 Du        
   2967 ****       117.0000 256.0000 339.0000 Du        
   2968 ****       117.0000 256.0000 339.2500 Du        
   2969 ****       117.0000 256.0000 339.5000 Du        
   2970 ****       117.0000 256.0000 339.7500 Du        
   2971 ****       117.0000 256.0000 340.0000 Du        
   2972 ****       117.0000 256.0000 340.2500 Du        
   2973 ****       117.0000 256.0000 340.5000 Du        
   2974 ****       117.0000 256.2500 338.2500 Du        
   2975 ****       117.0000 256.2500 338.5000 Du        
   2976 ****       117.0000 256.2500 338.7500 Du        
   2977 ****       117.0000 256.2500 339.0000 Du        
   2978 ****       117.0000 256.2500 339.2500 Du        
   2979 ****       117.0000 256.2500 339.5000 Du        
   2980 ****       117.0000 256.2500 339.7500 Du        
   2981 ****       117.0000 256.2500 340.0000 Du        
   2982 ****       117.0000 256.2500 340.2500 Du        
   2983 ****       117.0000 256.2500 340.5000 Du        
   2984 ****       117.0000 256.5000 338.2500 Du        
   2985 ****       117.0000 256.5000 338.5000 Du        
   2986 ****       117.0000 256.5000 338.7500 Du        
   2987 ****       117.0000 256.5000 339.0000 Du        
   2988 ****       117.0000 256.5000 339.2500 Du        
   2989 ****       117.0000 256.5000 339.5000 Du        
   2990 ****       117.0000 256.5000 339.7500 Du        
   2991 ****       117.0000 256.5000 340.0000 Du        
   2992 ****       117.0000 256.7500 338.5000 Du        
   2993 ****       117.0000 256.7500 338.7500 Du        
   2994 ****       117.0000 256.7500 339.0000 Du        
   2995 ****       117.0000 256.7500 339.2500 Du        
   2996 ****       117.0000 257.0000 347.2500 Du        
   2997 ****       117.0000 257.0000 347.5000 Du        
   2998 ****       117.0000 257.2500 347.2500 Du        
   2999 ****       117.0000 257.2500 347.5000 Du        
   3000 ****       117.0000 257.2500 347.7500 Du        
   3001 ****       117.0000 257.5000 347.2500 Du        
   3002 ****       117.0000 257.5000 347.5000 Du        
   3003 ****       117.0000 257.5000 347.7500 Du        
   3004 ****       117.0000 257.5000 348.0000 Du        
   3005 ****       117.0000 257.7500 347.2500 Du        
   3006 ****       117.0000 257.7500 347.5000 Du        
   3007 ****       117.0000 257.7500 347.7500 Du        
   3008 ****       117.0000 257.7500 348.0000 Du        
   3009 ****       117.0000 257.7500 348.2500 Du        
   3010 ****       117.0000 258.0000 347.2500 Du        
   3011 ****       117.0000 258.0000 347.5000 Du        
   3012 ****       117.0000 258.0000 347.7500 Du        
   3013 ****       117.0000 258.0000 348.0000 Du        
   3014 ****       117.0000 258.0000 348.2500 Du        
   3015 ****       117.0000 258.0000 348.5000 Du        
   3016 ****       117.0000 258.0000 348.7500 Du        
   3017 ****       117.0000 258.2500 347.0000 Du        
   3018 ****       117.0000 258.2500 347.2500 Du        
   3019 ****       117.0000 258.2500 347.5000 Du        
   3020 ****       117.0000 258.2500 347.7500 Du        
   3021 ****       117.0000 258.2500 348.0000 Du        
   3022 ****       117.0000 258.2500 348.2500 Du        
   3023 ****       117.0000 258.2500 348.5000 Du        
   3024 ****       117.0000 258.2500 348.7500 Du        
   3025 ****       117.0000 258.2500 349.0000 Du        
   3026 ****       117.0000 258.2500 349.2500 Du        
   3027 ****       117.0000 258.2500 349.5000 Du        
   3028 ****       117.0000 258.2500 349.7500 Du        
   3029 ****       117.0000 258.2500 350.0000 Du        
   3030 ****       117.0000 258.2500 350.2500 Du        
   3031 ****       117.0000 258.5000 347.0000 Du        
   3032 ****       117.0000 258.5000 347.2500 Du        
   3033 ****       117.0000 258.5000 347.5000 Du        
   3034 ****       117.0000 258.5000 347.7500 Du        
   3035 ****       117.0000 258.5000 348.0000 Du        
   3036 ****       117.0000 258.5000 348.2500 Du        
   3037 ****       117.0000 258.5000 348.5000 Du        
   3038 ****       117.0000 258.5000 348.7500 Du        
   3039 ****       117.0000 258.5000 349.0000 Du        
   3040 ****       117.0000 258.5000 349.2500 Du        
   3041 ****       117.0000 258.5000 349.5000 Du        
   3042 ****       117.0000 258.5000 349.7500 Du        
   3043 ****       117.0000 258.5000 350.0000 Du        
   3044 ****       117.0000 258.5000 350.2500 Du        
   3045 ****       117.0000 258.7500 347.0000 Du        
   3046 ****       117.0000 258.7500 347.2500 Du        
   3047 ****       117.0000 258.7500 347.5000 Du        
   3048 ****       117.0000 258.7500 347.7500 Du        
   3049 ****       117.0000 258.7500 348.0000 Du        
   3050 ****       117.0000 258.7500 348.2500 Du        
   3051 ****       117.0000 258.7500 349.0000 Du        
   3052 ****       117.0000 258.7500 349.2500 Du        
   3053 ****       117.0000 258.7500 349.5000 Du        
   3054 ****       117.0000 258.7500 349.7500 Du        
   3055 ****       117.0000 258.7500 350.0000 Du        
   3056 ****       117.0000 258.7500 350.2500 Du        
   3057 ****       117.0000 259.0000 346.7500 Du        
   3058 ****       117.0000 259.0000 347.0000 Du        
   3059 ****       117.0000 259.0000 347.2500 Du        
   3060 ****       117.0000 259.0000 347.5000 Du        
   3061 ****       117.0000 259.0000 350.2500 Du        
   3062 ****       117.0000 259.2500 346.7500 Du        
   3063 ****       117.0000 259.2500 347.0000 Du        
   3064 ****       117.0000 259.2500 347.2500 Du        
   3065 ****       117.0000 259.5000 346.5000 Du        
   3066 ****       117.0000 259.5000 346.7500 Du        
   3067 ****       117.0000 259.7500 346.5000 Du        
   3068 ****       117.0000 259.7500 346.7500 Du        
   3069 ****       117.0000 260.0000 346.2500 Du        
   3070 ****       117.0000 260.0000 346.5000 Du        
   3071 ****       117.0000 260.2500 346.2500 Du        
   3072 ****       117.0000 260.2500 346.5000 Du        
   3073 ****       117.0000 260.5000 346.2500 Du        
   3074 ****       117.2500 254.5000 340.7500 Du        
   3075 ****       117.2500 254.7500 339.2500 Du        
   3076 ****       117.2500 254.7500 339.5000 Du        
   3077 ****       117.2500 254.7500 339.7500 Du        
   3078 ****       117.2500 254.7500 340.0000 Du        
   3079 ****       117.2500 254.7500 340.2500 Du        
   3080 ****       117.2500 254.7500 340.5000 Du        
   3081 ****       117.2500 254.7500 340.7500 Du        
   3082 ****       117.2500 254.7500 341.0000 Du        
   3083 ****       117.2500 255.0000 339.0000 Du        
   3084 ****       117.2500 255.0000 339.2500 Du        
   3085 ****       117.2500 255.0000 339.5000 Du        
   3086 ****       117.2500 255.0000 339.7500 Du        
   3087 ****       117.2500 255.0000 340.0000 Du        
   3088 ****       117.2500 255.0000 340.2500 Du        
   3089 ****       117.2500 255.0000 340.5000 Du        
   3090 ****       117.2500 255.0000 340.7500 Du        
   3091 ****       117.2500 255.0000 341.0000 Du        
   3092 ****       117.2500 255.2500 338.7500 Du        
   3093 ****       117.2500 255.2500 339.0000 Du        
   3094 ****       117.2500 255.2500 339.2500 Du        
   3095 ****       117.2500 255.2500 339.5000 Du        
   3096 ****       117.2500 255.2500 339.7500 Du        
   3097 ****       117.2500 255.2500 340.0000 Du        
   3098 ****       117.2500 255.2500 340.2500 Du        
   3099 ****       117.2500 255.2500 340.5000 Du        
   3100 ****       117.2500 255.2500 340.7500 Du        
   3101 ****       117.2500 255.2500 341.0000 Du        
   3102 ****       117.2500 255.5000 338.5000 Du        
   3103 ****       117.2500 255.5000 338.7500 Du        
   3104 ****       117.2500 255.5000 339.0000 Du        
   3105 ****       117.2500 255.5000 339.2500 Du        
   3106 ****       117.2500 255.5000 339.5000 Du        
   3107 ****       117.2500 255.5000 339.7500 Du        
   3108 ****       117.2500 255.5000 340.0000 Du        
   3109 ****       117.2500 255.5000 340.2500 Du        
   3110 ****       117.2500 255.5000 340.5000 Du        
   3111 ****       117.2500 255.5000 340.7500 Du        
   3112 ****       117.2500 255.5000 341.0000 Du        
   3113 ****       117.2500 255.7500 338.5000 Du        
   3114 ****       117.2500 255.7500 338.7500 Du        
   3115 ****       117.2500 255.7500 339.0000 Du        
   3116 ****       117.2500 255.7500 339.2500 Du        
   3117 ****       117.2500 255.7500 339.5000 Du        
   3118 ****       117.2500 255.7500 339.7500 Du        
   3119 ****       117.2500 255.7500 340.0000 Du        
   3120 ****       117.2500 255.7500 340.2500 Du        
   3121 ****       117.2500 255.7500 340.5000 Du        
   3122 ****       117.2500 255.7500 340.7500 Du        
   3123 ****       117.2500 256.0000 338.2500 Du        
   3124 ****       117.2500 256.0000 338.5000 Du        
   3125 ****       117.2500 256.0000 338.7500 Du        
   3126 ****       117.2500 256.0000 339.0000 Du        
   3127 ****       117.2500 256.0000 339.2500 Du        
   3128 ****       117.2500 256.0000 339.5000 Du        
   3129 ****       117.2500 256.0000 339.7500 Du        
   3130 ****       117.2500 256.0000 340.0000 Du        
   3131 ****       117.2500 256.0000 340.2500 Du        
   3132 ****       117.2500 256.0000 340.5000 Du        
   3133 ****       117.2500 256.2500 338.2500 Du        
   3134 ****       117.2500 256.2500 338.5000 Du        
   3135 ****       117.2500 256.2500 338.7500 Du        
   3136 ****       117.2500 256.2500 339.0000 Du        
   3137 ****       117.2500 256.2500 339.2500 Du        
   3138 ****       117.2500 256.2500 339.5000 Du        
   3139 ****       117.2500 256.2500 339.7500 Du        
   3140 ****       117.2500 256.2500 340.0000 Du        
   3141 ****       117.2500 256.2500 340.2500 Du        
   3142 ****       117.2500 256.2500 340.5000 Du        
   3143 ****       117.2500 256.5000 338.5000 Du        
   3144 ****       117.2500 256.5000 338.7500 Du        
   3145 ****       117.2500 256.5000 339.0000 Du        
   3146 ****       117.2500 256.5000 339.2500 Du        
   3147 ****       117.2500 256.5000 339.5000 Du        
   3148 ****       117.2500 256.5000 339.7500 Du        
   3149 ****       117.2500 256.5000 340.0000 Du        
   3150 ****       117.2500 256.5000 340.2500 Du        
   3151 ****       117.2500 256.7500 338.5000 Du        
   3152 ****       117.2500 256.7500 338.7500 Du        
   3153 ****       117.2500 256.7500 339.0000 Du        
   3154 ****       117.2500 256.7500 339.2500 Du        
   3155 ****       117.2500 256.7500 339.5000 Du        
   3156 ****       117.2500 256.7500 339.7500 Du        
   3157 ****       117.2500 257.0000 338.7500 Du        
   3158 ****       117.2500 257.0000 339.0000 Du        
   3159 ****       117.2500 257.0000 339.2500 Du        
   3160 ****       117.2500 257.0000 347.2500 Du        
   3161 ****       117.2500 257.2500 347.2500 Du        
   3162 ****       117.2500 257.2500 347.5000 Du        
   3163 ****       117.2500 257.5000 347.2500 Du        
   3164 ****       117.2500 257.5000 347.5000 Du        
   3165 ****       117.2500 257.5000 347.7500 Du        
   3166 ****       117.2500 257.7500 347.2500 Du        
   3167 ****       117.2500 257.7500 347.5000 Du        
   3168 ****       117.2500 257.7500 347.7500 Du        
   3169 ****       117.2500 257.7500 348.0000 Du        
   3170 ****       117.2500 258.0000 347.0000 Du        
   3171 ****       117.2500 258.0000 347.2500 Du        
   3172 ****       117.2500 258.0000 347.5000 Du        
   3173 ****       117.2500 258.0000 347.7500 Du        
   3174 ****       117.2500 258.0000 348.0000 Du        
   3175 ****       117.2500 258.0000 348.2500 Du        
   3176 ****       117.2500 258.0000 348.5000 Du        
   3177 ****       117.2500 258.2500 347.0000 Du        
   3178 ****       117.2500 258.2500 347.2500 Du        
   3179 ****       117.2500 258.2500 347.5000 Du        
   3180 ****       117.2500 258.2500 347.7500 Du        
   3181 ****       117.2500 258.2500 348.0000 Du        
   3182 ****       117.2500 258.2500 348.2500 Du        
   3183 ****       117.2500 258.2500 348.5000 Du        
   3184 ****       117.2500 258.2500 348.7500 Du        
   3185 ****       117.2500 258.2500 349.0000 Du        
   3186 ****       117.2500 258.5000 347.0000 Du        
   3187 ****       117.2500 258.5000 347.2500 Du        
   3188 ****       117.2500 258.5000 347.5000 Du        
   3189 ****       117.2500 258.5000 347.7500 Du        
   3190 ****       117.2500 258.5000 348.0000 Du        
   3191 ****       117.2500 258.5000 348.2500 Du        
   3192 ****       117.2500 258.7500 347.0000 Du        
   3193 ****       117.2500 258.7500 347.2500 Du        
   3194 ****       117.5000 254.7500 339.5000 Du        
   3195 ****       117.5000 254.7500 339.7500 Du        
   3196 ****       117.5000 254.7500 340.0000 Du        
   3197 ****       117.5000 254.7500 340.2500 Du        
   3198 ****       117.5000 254.7500 340.5000 Du        
   3199 ****       117.5000 254.7500 340.7500 Du        
   3200 ****       117.5000 254.7500 341.0000 Du        
   3201 ****       117.5000 255.0000 339.2500 Du        
   3202 ****       117.5000 255.0000 339.5000 Du        
   3203 ****       117.5000 255.0000 339.7500 Du        
   3204 ****       117.5000 255.0000 340.0000 Du        
   3205 ****       117.5000 255.0000 340.2500 Du        
   3206 ****       117.5000 255.0000 340.5000 Du        
   3207 ****       117.5000 255.0000 340.7500 Du        
   3208 ****       117.5000 255.0000 341.0000 Du        
   3209 ****       117.5000 255.2500 339.0000 Du        
   3210 ****       117.5000 255.2500 339.2500 Du        
   3211 ****       117.5000 255.2500 339.5000 Du        
   3212 ****       117.5000 255.2500 339.7500 Du        
   3213 ****       117.5000 255.2500 340.0000 Du        
   3214 ****       117.5000 255.2500 340.2500 Du        
   3215 ****       117.5000 255.2500 340.5000 Du        
   3216 ****       117.5000 255.2500 340.7500 Du        
   3217 ****       117.5000 255.2500 341.0000 Du        
   3218 ****       117.5000 255.5000 338.7500 Du        
   3219 ****       117.5000 255.5000 339.0000 Du        
   3220 ****       117.5000 255.5000 339.2500 Du        
   3221 ****       117.5000 255.5000 339.5000 Du        
   3222 ****       117.5000 255.5000 339.7500 Du        
   3223 ****       117.5000 255.5000 340.0000 Du        
   3224 ****       117.5000 255.5000 340.2500 Du        
   3225 ****       117.5000 255.5000 340.5000 Du        
   3226 ****       117.5000 255.5000 340.7500 Du        
   3227 ****       117.5000 255.5000 341.0000 Du        
   3228 ****       117.5000 255.7500 338.5000 Du        
   3229 ****       117.5000 255.7500 338.7500 Du        
   3230 ****       117.5000 255.7500 339.0000 Du        
   3231 ****       117.5000 255.7500 339.2500 Du        
   3232 ****       117.5000 255.7500 339.5000 Du        
   3233 ****       117.5000 255.7500 339.7500 Du        
   3234 ****       117.5000 255.7500 340.0000 Du        
   3235 ****       117.5000 255.7500 340.2500 Du        
   3236 ****       117.5000 255.7500 340.5000 Du        
   3237 ****       117.5000 255.7500 340.7500 Du        
   3238 ****       117.5000 256.0000 338.5000 Du        
   3239 ****       117.5000 256.0000 338.7500 Du        
   3240 ****       117.5000 256.0000 339.0000 Du        
   3241 ****       117.5000 256.0000 339.2500 Du        
   3242 ****       117.5000 256.0000 339.5000 Du        
   3243 ****       117.5000 256.0000 339.7500 Du        
   3244 ****       117.5000 256.0000 340.0000 Du        
   3245 ****       117.5000 256.0000 340.2500 Du        
   3246 ****       117.5000 256.0000 340.5000 Du        
   3247 ****       117.5000 256.0000 340.7500 Du        
   3248 ****       117.5000 256.2500 338.5000 Du        
   3249 ****       117.5000 256.2500 338.7500 Du        
   3250 ****       117.5000 256.2500 339.0000 Du        
   3251 ****       117.5000 256.2500 339.2500 Du        
   3252 ****       117.5000 256.2500 339.5000 Du        
   3253 ****       117.5000 256.2500 339.7500 Du        
   3254 ****       117.5000 256.2500 340.0000 Du        
   3255 ****       117.5000 256.2500 340.2500 Du        
   3256 ****       117.5000 256.2500 340.5000 Du        
   3257 ****       117.5000 256.5000 338.5000 Du        
   3258 ****       117.5000 256.5000 338.7500 Du        
   3259 ****       117.5000 256.5000 339.0000 Du        
   3260 ****       117.5000 256.5000 339.2500 Du        
   3261 ****       117.5000 256.5000 339.5000 Du        
   3262 ****       117.5000 256.5000 339.7500 Du        
   3263 ****       117.5000 256.5000 340.0000 Du        
   3264 ****       117.5000 256.5000 340.2500 Du        
   3265 ****       117.5000 256.7500 338.7500 Du        
   3266 ****       117.5000 256.7500 339.0000 Du        
   3267 ****       117.5000 256.7500 339.2500 Du        
   3268 ****       117.5000 256.7500 339.5000 Du        
   3269 ****       117.5000 256.7500 339.7500 Du        
   3270 ****       117.5000 256.7500 340.0000 Du        
   3271 ****       117.5000 257.0000 338.7500 Du        
   3272 ****       117.5000 257.0000 339.0000 Du        
   3273 ****       117.5000 257.0000 339.2500 Du        
   3274 ****       117.5000 257.0000 339.5000 Du        
   3275 ****       117.5000 257.0000 339.7500 Du        
   3276 ****       117.5000 257.2500 347.2500 Du        
   3277 ****       117.5000 257.2500 347.5000 Du        
   3278 ****       117.5000 257.5000 347.2500 Du        
   3279 ****       117.5000 257.5000 347.5000 Du        
   3280 ****       117.5000 257.5000 347.7500 Du        
   3281 ****       117.5000 257.7500 347.0000 Du        
   3282 ****       117.5000 257.7500 347.2500 Du        
   3283 ****       117.5000 257.7500 347.5000 Du        
   3284 ****       117.5000 257.7500 347.7500 Du        
   3285 ****       117.5000 257.7500 348.0000 Du        
   3286 ****       117.5000 258.0000 347.0000 Du        
   3287 ****       117.5000 258.0000 347.2500 Du        
   3288 ****       117.5000 258.0000 347.5000 Du        
   3289 ****       117.5000 258.0000 347.7500 Du        
   3290 ****       117.5000 258.0000 348.0000 Du        
   3291 ****       117.5000 258.0000 348.2500 Du        
   3292 ****       117.5000 258.2500 347.0000 Du        
   3293 ****       117.5000 258.2500 347.2500 Du        
   3294 ****       117.5000 258.2500 347.5000 Du        
   3295 ****       117.5000 258.2500 347.7500 Du        
   3296 ****       117.5000 258.2500 348.0000 Du        
   3297 ****       117.5000 258.2500 348.2500 Du        
   3298 ****       117.5000 258.5000 347.0000 Du        
   3299 ****       117.5000 258.5000 347.2500 Du        
   3300 ****       117.5000 258.5000 347.5000 Du        
   3301 ****       117.7500 254.7500 339.7500 Du        
   3302 ****       117.7500 254.7500 340.0000 Du        
   3303 ****       117.7500 254.7500 340.2500 Du        
   3304 ****       117.7500 254.7500 340.5000 Du        
   3305 ****       117.7500 254.7500 340.7500 Du        
   3306 ****       117.7500 255.0000 339.5000 Du        
   3307 ****       117.7500 255.0000 339.7500 Du        
   3308 ****       117.7500 255.0000 340.0000 Du        
   3309 ****       117.7500 255.0000 340.2500 Du        
   3310 ****       117.7500 255.0000 340.5000 Du        
   3311 ****       117.7500 255.0000 340.7500 Du        
   3312 ****       117.7500 255.2500 339.0000 Du        
   3313 ****       117.7500 255.2500 339.2500 Du        
   3314 ****       117.7500 255.2500 339.5000 Du        
   3315 ****       117.7500 255.2500 339.7500 Du        
   3316 ****       117.7500 255.2500 340.0000 Du        
   3317 ****       117.7500 255.2500 340.2500 Du        
   3318 ****       117.7500 255.2500 340.5000 Du        
   3319 ****       117.7500 255.2500 340.7500 Du        
   3320 ****       117.7500 255.5000 338.7500 Du        
   3321 ****       117.7500 255.5000 339.0000 Du        
   3322 ****       117.7500 255.5000 339.2500 Du        
   3323 ****       117.7500 255.5000 339.5000 Du        
   3324 ****       117.7500 255.5000 339.7500 Du        
   3325 ****       117.7500 255.5000 340.0000 Du        
   3326 ****       117.7500 255.5000 340.2500 Du        
   3327 ****       117.7500 255.5000 340.5000 Du        
   3328 ****       117.7500 255.5000 340.7500 Du        
   3329 ****       117.7500 255.7500 338.7500 Du        
   3330 ****       117.7500 255.7500 339.0000 Du        
   3331 ****       117.7500 255.7500 339.2500 Du        
   3332 ****       117.7500 255.7500 339.5000 Du        
   3333 ****       117.7500 255.7500 339.7500 Du        
   3334 ****       117.7500 255.7500 340.0000 Du        
   3335 ****       117.7500 255.7500 340.2500 Du        
   3336 ****       117.7500 255.7500 340.5000 Du        
   3337 ****       117.7500 255.7500 340.7500 Du        
   3338 ****       117.7500 256.0000 338.5000 Du        
   3339 ****       117.7500 256.0000 338.7500 Du        
   3340 ****       117.7500 256.0000 339.0000 Du        
   3341 ****       117.7500 256.0000 339.2500 Du        
   3342 ****       117.7500 256.0000 339.5000 Du        
   3343 ****       117.7500 256.0000 339.7500 Du        
   3344 ****       117.7500 256.0000 340.0000 Du        
   3345 ****       117.7500 256.0000 340.2500 Du        
   3346 ****       117.7500 256.0000 340.5000 Du        
   3347 ****       117.7500 256.2500 338.5000 Du        
   3348 ****       117.7500 256.2500 338.7500 Du        
   3349 ****       117.7500 256.2500 339.0000 Du        
   3350 ****       117.7500 256.2500 339.2500 Du        
   3351 ****       117.7500 256.2500 339.5000 Du        
   3352 ****       117.7500 256.2500 339.7500 Du        
   3353 ****       117.7500 256.2500 340.0000 Du        
   3354 ****       117.7500 256.2500 340.2500 Du        
   3355 ****       117.7500 256.2500 340.5000 Du        
   3356 ****       117.7500 256.5000 338.5000 Du        
   3357 ****       117.7500 256.5000 338.7500 Du        
   3358 ****       117.7500 256.5000 339.0000 Du        
   3359 ****       117.7500 256.5000 339.2500 Du        
   3360 ****       117.7500 256.5000 339.5000 Du        
   3361 ****       117.7500 256.5000 339.7500 Du        
   3362 ****       117.7500 256.5000 340.0000 Du        
   3363 ****       117.7500 256.5000 340.2500 Du        
   3364 ****       117.7500 256.7500 338.7500 Du        
   3365 ****       117.7500 256.7500 339.0000 Du        
   3366 ****       117.7500 256.7500 339.2500 Du        
   3367 ****       117.7500 256.7500 339.5000 Du        
   3368 ****       117.7500 256.7500 339.7500 Du        
   3369 ****       117.7500 256.7500 340.0000 Du        
   3370 ****       117.7500 256.7500 340.2500 Du        
   3371 ****       117.7500 257.0000 339.0000 Du        
   3372 ****       117.7500 257.0000 339.2500 Du        
   3373 ****       117.7500 257.0000 339.5000 Du        
   3374 ****       117.7500 257.0000 339.7500 Du        
   3375 ****       117.7500 257.0000 340.0000 Du        
   3376 ****       117.7500 257.2500 339.0000 Du        
   3377 ****       117.7500 257.2500 339.2500 Du        
   3378 ****       117.7500 257.2500 339.5000 Du        
   3379 ****       117.7500 257.2500 347.2500 Du        
   3380 ****       117.7500 257.5000 347.2500 Du        
   3381 ****       117.7500 257.5000 347.5000 Du        
   3382 ****       117.7500 257.7500 347.0000 Du        
   3383 ****       117.7500 257.7500 347.2500 Du        
   3384 ****       117.7500 257.7500 347.5000 Du        
   3385 ****       117.7500 257.7500 347.7500 Du        
   3386 ****       117.7500 258.0000 347.0000 Du        
   3387 ****       117.7500 258.0000 347.2500 Du        
   3388 ****       117.7500 258.0000 347.5000 Du        
   3389 ****       117.7500 258.0000 347.7500 Du        
   3390 ****       117.7500 258.0000 348.0000 Du        
   3391 ****       117.7500 258.2500 347.0000 Du        
   3392 ****       117.7500 258.2500 347.2500 Du        
   3393 ****       117.7500 258.2500 347.5000 Du        
   3394 ****       117.7500 258.2500 347.7500 Du        
   3395 ****       118.0000 255.0000 339.7500 Du        
   3396 ****       118.0000 255.0000 340.0000 Du        
   3397 ****       118.0000 255.0000 340.2500 Du        
   3398 ****       118.0000 255.0000 340.5000 Du        
   3399 ****       118.0000 255.2500 339.5000 Du        
   3400 ****       118.0000 255.2500 339.7500 Du        
   3401 ****       118.0000 255.2500 340.0000 Du        
   3402 ****       118.0000 255.2500 340.2500 Du        
   3403 ****       118.0000 255.2500 340.5000 Du        
   3404 ****       118.0000 255.2500 340.7500 Du        
   3405 ****       118.0000 255.5000 339.0000 Du        
   3406 ****       118.0000 255.5000 339.2500 Du        
   3407 ****       118.0000 255.5000 339.5000 Du        
   3408 ****       118.0000 255.5000 339.7500 Du        
   3409 ****       118.0000 255.5000 340.0000 Du        
   3410 ****       118.0000 255.5000 340.2500 Du        
   3411 ****       118.0000 255.5000 340.5000 Du        
   3412 ****       118.0000 255.5000 340.7500 Du        
   3413 ****       118.0000 255.7500 338.7500 Du        
   3414 ****       118.0000 255.7500 339.0000 Du        
   3415 ****       118.0000 255.7500 339.2500 Du        
   3416 ****       118.0000 255.7500 339.5000 Du        
   3417 ****       118.0000 255.7500 339.7500 Du        
   3418 ****       118.0000 255.7500 340.0000 Du        
   3419 ****       118.0000 255.7500 340.2500 Du        
   3420 ****       118.0000 255.7500 340.5000 Du        
   3421 ****       118.0000 255.7500 340.7500 Du        
   3422 ****       118.0000 256.0000 338.7500 Du        
   3423 ****       118.0000 256.0000 339.0000 Du        
   3424 ****       118.0000 256.0000 339.2500 Du        
   3425 ****       118.0000 256.0000 339.5000 Du        
   3426 ****       118.0000 256.0000 339.7500 Du        
   3427 ****       118.0000 256.0000 340.0000 Du        
   3428 ****       118.0000 256.0000 340.2500 Du        
   3429 ****       118.0000 256.0000 340.5000 Du        
   3430 ****       118.0000 256.2500 338.5000 Du        
   3431 ****       118.0000 256.2500 338.7500 Du        
   3432 ****       118.0000 256.2500 339.0000 Du        
   3433 ****       118.0000 256.2500 339.2500 Du        
   3434 ****       118.0000 256.2500 339.5000 Du        
   3435 ****       118.0000 256.2500 339.7500 Du        
   3436 ****       118.0000 256.2500 340.0000 Du        
   3437 ****       118.0000 256.2500 340.2500 Du        
   3438 ****       118.0000 256.2500 340.5000 Du        
   3439 ****       118.0000 256.5000 338.7500 Du        
   3440 ****       118.0000 256.5000 339.0000 Du        
   3441 ****       118.0000 256.5000 339.2500 Du        
   3442 ****       118.0000 256.5000 339.5000 Du        
   3443 ****       118.0000 256.5000 339.7500 Du        
   3444 ****       118.0000 256.5000 340.0000 Du        
   3445 ****       118.0000 256.5000 340.2500 Du        
   3446 ****       118.0000 256.5000 340.5000 Du        
   3447 ****       118.0000 256.7500 338.7500 Du        
   3448 ****       118.0000 256.7500 339.0000 Du        
   3449 ****       118.0000 256.7500 339.2500 Du        
   3450 ****       118.0000 256.7500 339.5000 Du        
   3451 ****       118.0000 256.7500 339.7500 Du        
   3452 ****       118.0000 256.7500 340.0000 Du        
   3453 ****       118.0000 256.7500 340.2500 Du        
   3454 ****       118.0000 257.0000 339.0000 Du        
   3455 ****       118.0000 257.0000 339.2500 Du        
   3456 ****       118.0000 257.0000 339.5000 Du        
   3457 ****       118.0000 257.0000 339.7500 Du        
   3458 ****       118.0000 257.0000 340.0000 Du        
   3459 ****       118.0000 257.0000 340.2500 Du        
   3460 ****       118.0000 257.2500 339.0000 Du        
   3461 ****       118.0000 257.2500 339.2500 Du        
   3462 ****       118.0000 257.2500 339.5000 Du        
   3463 ****       118.0000 257.2500 339.7500 Du        
   3464 ****       118.0000 257.2500 340.0000 Du        
   3465 ****       118.0000 257.5000 347.2500 Du        
   3466 ****       118.0000 257.7500 347.0000 Du        
   3467 ****       118.0000 257.7500 347.2500 Du        
   3468 ****       118.0000 257.7500 347.5000 Du        
   3469 ****       118.0000 258.0000 347.0000 Du        
   3470 ****       118.0000 258.0000 347.2500 Du        
   3471 ****       118.0000 258.0000 347.5000 Du        
   3472 ****       118.0000 258.0000 347.7500 Du        
   3473 ****       118.0000 258.2500 347.2500 Du        
   3474 ****       118.2500 255.2500 339.7500 Du        
   3475 ****       118.2500 255.2500 340.0000 Du        
   3476 ****       118.2500 255.2500 340.2500 Du        
   3477 ****       118.2500 255.5000 339.2500 Du        
   3478 ****       118.2500 255.5000 339.5000 Du        
   3479 ****       118.2500 255.5000 339.7500 Du        
   3480 ****       118.2500 255.5000 340.0000 Du        
   3481 ****       118.2500 255.5000 340.2500 Du        
   3482 ****       118.2500 255.5000 340.5000 Du        
   3483 ****       118.2500 255.7500 339.0000 Du        
   3484 ****       118.2500 255.7500 339.2500 Du        
   3485 ****       118.2500 255.7500 339.5000 Du        
   3486 ****       118.2500 255.7500 339.7500 Du        
   3487 ****       118.2500 255.7500 340.0000 Du        
   3488 ****       118.2500 255.7500 340.2500 Du        
   3489 ****       118.2500 255.7500 340.5000 Du        
   3490 ****       118.2500 256.0000 338.7500 Du        
   3491 ****       118.2500 256.0000 339.0000 Du        
   3492 ****       118.2500 256.0000 339.2500 Du        
   3493 ****       118.2500 256.0000 339.5000 Du        
   3494 ****       118.2500 256.0000 339.7500 Du        
   3495 ****       118.2500 256.0000 340.0000 Du        
   3496 ****       118.2500 256.0000 340.2500 Du        
   3497 ****       118.2500 256.0000 340.5000 Du        
   3498 ****       118.2500 256.2500 338.7500 Du        
   3499 ****       118.2500 256.2500 339.0000 Du        
   3500 ****       118.2500 256.2500 339.2500 Du        
   3501 ****       118.2500 256.2500 339.5000 Du        
   3502 ****       118.2500 256.2500 339.7500 Du        
   3503 ****       118.2500 256.2500 340.0000 Du        
   3504 ****       118.2500 256.2500 340.2500 Du        
   3505 ****       118.2500 256.2500 340.5000 Du        
   3506 ****       118.2500 256.5000 338.7500 Du        
   3507 ****       118.2500 256.5000 339.0000 Du        
   3508 ****       118.2500 256.5000 339.2500 Du        
   3509 ****       118.2500 256.5000 339.5000 Du        
   3510 ****       118.2500 256.5000 339.7500 Du        
   3511 ****       118.2500 256.5000 340.0000 Du        
   3512 ****       118.2500 256.5000 340.2500 Du        
   3513 ****       118.2500 256.7500 338.7500 Du        
   3514 ****       118.2500 256.7500 339.0000 Du        
   3515 ****       118.2500 256.7500 339.2500 Du        
   3516 ****       118.2500 256.7500 339.5000 Du        
   3517 ****       118.2500 256.7500 339.7500 Du        
   3518 ****       118.2500 256.7500 340.0000 Du        
   3519 ****       118.2500 256.7500 340.2500 Du        
   3520 ****       118.2500 257.0000 339.0000 Du        
   3521 ****       118.2500 257.0000 339.2500 Du        
   3522 ****       118.2500 257.0000 339.5000 Du        
   3523 ****       118.2500 257.0000 339.7500 Du        
   3524 ****       118.2500 257.0000 340.0000 Du        
   3525 ****       118.2500 257.0000 340.2500 Du        
   3526 ****       118.2500 257.2500 339.0000 Du        
   3527 ****       118.2500 257.2500 339.2500 Du        
   3528 ****       118.2500 257.2500 339.5000 Du        
   3529 ****       118.2500 257.2500 339.7500 Du        
   3530 ****       118.2500 257.2500 340.0000 Du        
   3531 ****       118.2500 257.5000 339.2500 Du        
   3532 ****       118.2500 257.5000 339.5000 Du        
   3533 ****       118.2500 257.5000 339.7500 Du        
   3534 ****       118.5000 255.2500 340.0000 Du        
   3535 ****       118.5000 255.5000 339.5000 Du        
   3536 ****       118.5000 255.5000 339.7500 Du        
   3537 ****       118.5000 255.5000 340.0000 Du        
   3538 ****       118.5000 255.5000 340.2500 Du        
   3539 ****       118.5000 255.7500 339.2500 Du        
   3540 ****       118.5000 255.7500 339.5000 Du        
   3541 ****       118.5000 255.7500 339.7500 Du        
   3542 ****       118.5000 255.7500 340.0000 Du        
   3543 ****       118.5000 255.7500 340.2500 Du        
   3544 ****       118.5000 256.0000 339.0000 Du        
   3545 ****       118.5000 256.0000 339.2500 Du        
   3546 ****       118.5000 256.0000 339.5000 Du        
   3547 ****       118.5000 256.0000 339.7500 Du        
   3548 ****       118.5000 256.0000 340.0000 Du        
   3549 ****       118.5000 256.0000 340.2500 Du        
   3550 ****       118.5000 256.2500 338.7500 Du        
   3551 ****       118.5000 256.2500 339.0000 Du        
   3552 ****       118.5000 256.2500 339.2500 Du        
   3553 ****       118.5000 256.2500 339.5000 Du        
   3554 ****       118.5000 256.2500 339.7500 Du        
   3555 ****       118.5000 256.2500 340.0000 Du        
   3556 ****       118.5000 256.2500 340.2500 Du        
   3557 ****       118.5000 256.5000 338.7500 Du        
   3558 ****       118.5000 256.5000 339.0000 Du        
   3559 ****       118.5000 256.5000 339.2500 Du        
   3560 ****       118.5000 256.5000 339.5000 Du        
   3561 ****       118.5000 256.5000 339.7500 Du        
   3562 ****       118.5000 256.5000 340.0000 Du        
   3563 ****       118.5000 256.5000 340.2500 Du        
   3564 ****       118.5000 256.7500 339.0000 Du        
   3565 ****       118.5000 256.7500 339.2500 Du        
   3566 ****       118.5000 256.7500 339.5000 Du        
   3567 ****       118.5000 256.7500 339.7500 Du        
   3568 ****       118.5000 256.7500 340.0000 Du        
   3569 ****       118.5000 256.7500 340.2500 Du        
   3570 ****       118.5000 257.0000 339.0000 Du        
   3571 ****       118.5000 257.0000 339.2500 Du        
   3572 ****       118.5000 257.0000 339.5000 Du        
   3573 ****       118.5000 257.0000 339.7500 Du        
   3574 ****       118.5000 257.0000 340.0000 Du        
   3575 ****       118.5000 257.0000 340.2500 Du        
   3576 ****       118.5000 257.2500 339.0000 Du        
   3577 ****       118.5000 257.2500 339.2500 Du        
   3578 ****       118.5000 257.2500 339.5000 Du        
   3579 ****       118.5000 257.2500 339.7500 Du        
   3580 ****       118.5000 257.2500 340.0000 Du        
   3581 ****       118.5000 257.2500 340.2500 Du        
   3582 ****       118.5000 257.5000 339.2500 Du        
   3583 ****       118.5000 257.5000 339.5000 Du        
   3584 ****       118.5000 257.5000 339.7500 Du        
   3585 ****       118.5000 257.5000 340.0000 Du        
   3586 ****       118.5000 257.7500 339.5000 Du        
   3587 ****       118.5000 257.7500 339.7500 Du        
   3588 ****       118.7500 254.2500 347.2500 Du        
   3589 ****       118.7500 255.5000 339.7500 Du        
   3590 ****       118.7500 255.5000 340.0000 Du        
   3591 ****       118.7500 255.7500 339.5000 Du        
   3592 ****       118.7500 255.7500 339.7500 Du        
   3593 ****       118.7500 255.7500 340.0000 Du        
   3594 ****       118.7500 255.7500 340.2500 Du        
   3595 ****       118.7500 256.0000 339.0000 Du        
   3596 ****       118.7500 256.0000 339.2500 Du        
   3597 ****       118.7500 256.0000 339.5000 Du        
   3598 ****       118.7500 256.0000 339.7500 Du        
   3599 ****       118.7500 256.0000 340.0000 Du        
   3600 ****       118.7500 256.0000 340.2500 Du        
   3601 ****       118.7500 256.2500 338.7500 Du        
   3602 ****       118.7500 256.2500 339.0000 Du        
   3603 ****       118.7500 256.2500 339.2500 Du        
   3604 ****       118.7500 256.2500 339.5000 Du        
   3605 ****       118.7500 256.2500 339.7500 Du        
   3606 ****       118.7500 256.2500 340.0000 Du        
   3607 ****       118.7500 256.2500 340.2500 Du        
   3608 ****       118.7500 256.5000 338.7500 Du        
   3609 ****       118.7500 256.5000 339.0000 Du        
   3610 ****       118.7500 256.5000 339.2500 Du        
   3611 ****       118.7500 256.5000 339.5000 Du        
   3612 ****       118.7500 256.5000 339.7500 Du        
   3613 ****       118.7500 256.5000 340.0000 Du        
   3614 ****       118.7500 256.5000 340.2500 Du        
   3615 ****       118.7500 256.7500 339.0000 Du        
   3616 ****       118.7500 256.7500 339.2500 Du        
   3617 ****       118.7500 256.7500 339.5000 Du        
   3618 ****       118.7500 256.7500 339.7500 Du        
   3619 ****       118.7500 256.7500 340.0000 Du        
   3620 ****       118.7500 256.7500 340.2500 Du        
   3621 ****       118.7500 257.0000 339.0000 Du        
   3622 ****       118.7500 257.0000 339.2500 Du        
   3623 ****       118.7500 257.0000 339.5000 Du        
   3624 ****       118.7500 257.0000 339.7500 Du        
   3625 ****       118.7500 257.0000 340.0000 Du        
   3626 ****       118.7500 257.0000 340.2500 Du        
   3627 ****       118.7500 257.2500 339.0000 Du        
   3628 ****       118.7500 257.2500 339.2500 Du        
   3629 ****       118.7500 257.2500 339.5000 Du        
   3630 ****       118.7500 257.2500 339.7500 Du        
   3631 ****       118.7500 257.2500 340.0000 Du        
   3632 ****       118.7500 257.2500 340.2500 Du        
   3633 ****       118.7500 257.5000 339.2500 Du        
   3634 ****       118.7500 257.5000 339.5000 Du        
   3635 ****       118.7500 257.5000 339.7500 Du        
   3636 ****       118.7500 257.5000 340.0000 Du        
   3637 ****       118.7500 257.7500 339.2500 Du        
   3638 ****       118.7500 257.7500 339.5000 Du        
   3639 ****       118.7500 257.7500 339.7500 Du        
   3640 ****       118.7500 257.7500 340.0000 Du        
   3641 ****       119.0000 254.0000 347.2500 Du        
   3642 ****       119.0000 254.2500 347.0000 Du        
   3643 ****       119.0000 254.2500 347.2500 Du        
   3644 ****       119.0000 254.5000 347.0000 Du        
   3645 ****       119.0000 254.5000 347.2500 Du        
   3646 ****       119.0000 255.7500 339.5000 Du        
   3647 ****       119.0000 255.7500 339.7500 Du        
   3648 ****       119.0000 255.7500 340.0000 Du        
   3649 ****       119.0000 256.0000 339.2500 Du        
   3650 ****       119.0000 256.0000 339.5000 Du        
   3651 ****       119.0000 256.0000 339.7500 Du        
   3652 ****       119.0000 256.0000 340.0000 Du        
   3653 ****       119.0000 256.2500 339.0000 Du        
   3654 ****       119.0000 256.2500 339.2500 Du        
   3655 ****       119.0000 256.2500 339.5000 Du        
   3656 ****       119.0000 256.2500 339.7500 Du        
   3657 ****       119.0000 256.2500 340.0000 Du        
   3658 ****       119.0000 256.2500 340.2500 Du        
   3659 ****       119.0000 256.5000 338.7500 Du        
   3660 ****       119.0000 256.5000 339.0000 Du        
   3661 ****       119.0000 256.5000 339.2500 Du        
   3662 ****       119.0000 256.5000 339.5000 Du        
   3663 ****       119.0000 256.5000 339.7500 Du        
   3664 ****       119.0000 256.5000 340.0000 Du        
   3665 ****       119.0000 256.5000 340.2500 Du        
   3666 ****       119.0000 256.7500 339.0000 Du        
   3667 ****       119.0000 256.7500 339.2500 Du        
   3668 ****       119.0000 256.7500 339.5000 Du        
   3669 ****       119.0000 256.7500 339.7500 Du        
   3670 ****       119.0000 256.7500 340.0000 Du        
   3671 ****       119.0000 256.7500 340.2500 Du        
   3672 ****       119.0000 257.0000 339.0000 Du        
   3673 ****       119.0000 257.0000 339.2500 Du        
   3674 ****       119.0000 257.0000 339.5000 Du        
   3675 ****       119.0000 257.0000 339.7500 Du        
   3676 ****       119.0000 257.0000 340.0000 Du        
   3677 ****       119.0000 257.0000 340.2500 Du        
   3678 ****       119.0000 257.2500 339.0000 Du        
   3679 ****       119.0000 257.2500 339.2500 Du        
   3680 ****       119.0000 257.2500 339.5000 Du        
   3681 ****       119.0000 257.2500 339.7500 Du        
   3682 ****       119.0000 257.2500 340.0000 Du        
   3683 ****       119.0000 257.2500 340.2500 Du        
   3684 ****       119.0000 257.5000 339.2500 Du        
   3685 ****       119.0000 257.5000 339.5000 Du        
   3686 ****       119.0000 257.5000 339.7500 Du        
   3687 ****       119.0000 257.5000 340.0000 Du        
   3688 ****       119.0000 257.5000 340.2500 Du        
   3689 ****       119.0000 257.7500 339.2500 Du        
   3690 ****       119.0000 257.7500 339.5000 Du        
   3691 ****       119.0000 257.7500 339.7500 Du        
   3692 ****       119.0000 257.7500 340.0000 Du        
   3693 ****       119.2500 254.0000 347.0000 Du        
   3694 ****       119.2500 254.0000 347.2500 Du        
   3695 ****       119.2500 254.2500 347.0000 Du        
   3696 ****       119.2500 254.2500 347.2500 Du        
   3697 ****       119.2500 254.2500 347.5000 Du        
   3698 ****       119.2500 254.5000 347.0000 Du        
   3699 ****       119.2500 254.5000 347.2500 Du        
   3700 ****       119.2500 254.7500 347.0000 Du        
   3701 ****       119.2500 254.7500 347.2500 Du        
   3702 ****       119.2500 255.7500 339.7500 Du        
   3703 ****       119.2500 256.0000 339.2500 Du        
   3704 ****       119.2500 256.0000 339.5000 Du        
   3705 ****       119.2500 256.0000 339.7500 Du        
   3706 ****       119.2500 256.0000 340.0000 Du        
   3707 ****       119.2500 256.2500 339.0000 Du        
   3708 ****       119.2500 256.2500 339.2500 Du        
   3709 ****       119.2500 256.2500 339.5000 Du        
   3710 ****       119.2500 256.2500 339.7500 Du        
   3711 ****       119.2500 256.2500 340.0000 Du        
   3712 ****       119.2500 256.5000 339.0000 Du        
   3713 ****       119.2500 256.5000 339.2500 Du        
   3714 ****       119.2500 256.5000 339.5000 Du        
   3715 ****       119.2500 256.5000 339.7500 Du        
   3716 ****       119.2500 256.5000 340.0000 Du        
   3717 ****       119.2500 256.7500 339.0000 Du        
   3718 ****       119.2500 256.7500 339.2500 Du        
   3719 ****       119.2500 256.7500 339.5000 Du        
   3720 ****       119.2500 256.7500 339.7500 Du        
   3721 ****       119.2500 256.7500 340.0000 Du        
   3722 ****       119.2500 257.0000 339.5000 Du        
   3723 ****       119.2500 257.0000 339.7500 Du        
   3724 ****       119.2500 257.0000 340.0000 Du        
   3725 ****       119.2500 257.2500 339.5000 Du        
   3726 ****       119.2500 257.2500 339.7500 Du        
   3727 ****       119.2500 257.2500 340.0000 Du        
   3728 ****       119.2500 257.2500 340.2500 Du        
   3729 ****       119.2500 257.5000 339.5000 Du        
   3730 ****       119.2500 257.5000 339.7500 Du        
   3731 ****       119.2500 257.5000 340.0000 Du        
   3732 ****       119.2500 257.5000 340.2500 Du        
   3733 ****       119.2500 257.7500 339.5000 Du        
   3734 ****       119.2500 257.7500 339.7500 Du        
   3735 ****       119.2500 257.7500 340.0000 Du        
   3736 ****       119.5000 254.0000 347.0000 Du        
   3737 ****       119.5000 254.0000 347.2500 Du        
   3738 ****       119.5000 254.2500 347.0000 Du        
   3739 ****       119.5000 254.2500 347.2500 Du        
   3740 ****       119.5000 254.2500 347.5000 Du        
   3741 ****       119.5000 254.5000 347.0000 Du        
   3742 ****       119.5000 254.5000 347.2500 Du        
   3743 ****       119.5000 254.5000 347.5000 Du        
   3744 ****       119.5000 254.7500 347.0000 Du        
   3745 ****       119.5000 254.7500 347.2500 Du        
   3746 ****       119.5000 256.0000 339.2500 Du        
   3747 ****       119.5000 256.0000 339.5000 Du        
   3748 ****       119.5000 256.0000 339.7500 Du        
   3749 ****       119.5000 256.2500 339.0000 Du        
   3750 ****       119.5000 256.2500 339.2500 Du        
   3751 ****       119.5000 256.2500 339.5000 Du        
   3752 ****       119.5000 256.2500 339.7500 Du        
   3753 ****       119.5000 256.2500 340.0000 Du        
   3754 ****       119.5000 256.5000 339.0000 Du        
   3755 ****       119.5000 256.5000 339.2500 Du        
   3756 ****       119.5000 256.5000 339.5000 Du        
   3757 ****       119.5000 256.5000 339.7500 Du        
   3758 ****       119.5000 256.5000 340.0000 Du        
   3759 ****       119.5000 256.7500 339.0000 Du        
   3760 ****       119.5000 256.7500 339.2500 Du        
   3761 ****       119.5000 256.7500 339.5000 Du        
   3762 ****       119.5000 256.7500 339.7500 Du        
   3763 ****       119.5000 256.7500 340.0000 Du        
   3764 ****       119.5000 257.0000 339.5000 Du        
   3765 ****       119.5000 257.0000 339.7500 Du        
   3766 ****       119.5000 257.0000 340.0000 Du        
   3767 ****       119.5000 257.2500 339.5000 Du        
   3768 ****       119.5000 257.2500 339.7500 Du        
   3769 ****       119.5000 257.2500 340.0000 Du        
   3770 ****       119.5000 257.5000 339.5000 Du        
   3771 ****       119.5000 257.5000 339.7500 Du        
   3772 ****       119.5000 257.5000 340.0000 Du        
   3773 ****       119.5000 257.5000 340.2500 Du        
   3774 ****       119.5000 257.7500 339.5000 Du        
   3775 ****       119.5000 257.7500 339.7500 Du        
   3776 ****       119.5000 257.7500 340.0000 Du        
   3777 ****       119.5000 257.7500 340.2500 Du        
   3778 ****       119.5000 258.0000 340.0000 Du        
   3779 ****       119.7500 254.5000 347.0000 Du        
   3780 ****       119.7500 254.5000 347.2500 Du        
   3781 ****       119.7500 254.5000 347.5000 Du        
   3782 ****       119.7500 254.7500 347.0000 Du        
   3783 ****       119.7500 254.7500 347.2500 Du        
   3784 ****       119.7500 256.7500 340.0000 Du        
   3785 ****       120.0000 254.5000 347.0000 Du        
   3786 ****       120.0000 254.5000 347.2500 Du        
   3787 ****       120.0000 254.5000 347.5000 Du        
   3788 ****       120.0000 254.7500 347.0000 Du        
   3789 ****       120.0000 254.7500 347.2500 Du        
