#       Name:                CT1002167954
#       Creating user name   hitesit
#       Creation time:       Sun Apr 16 22:52:01 2023


#       File generated by GOLD software.
#

@<TRIPOS>MOLECULE
CT1002167954|ligand_prepared|mol2|1|dock3
    29    30     1
SMALL
NO_CHARGES


@<TRIPOS>ATOM
      1 C1         116.0584 258.5138 347.0382 C.3            1 RES1               0.0000
      2 C2         115.2489 259.2716 348.1103 C.ar           1 RES1               0.0000
      3 C3         116.3959 257.1524 347.6390 C.2            1 RES1               0.0000
      4 C4         115.1691 258.4449 345.8016 C.2            1 RES1               0.0000
      5 C5         117.3776 259.2154 346.6395 C.3            1 RES1               0.0000
      6 C6         115.8752 259.7764 349.2458 C.ar           1 RES1               0.0000
      7 C7         113.8781 259.4756 347.9765 C.ar           1 RES1               0.0000
      8 N8         115.7148 256.0681 347.1694 N.am           1 RES1               0.0000
      9 O9         117.2188 257.0373 348.5389 O.2            1 RES1               0.0000
     10 N10        114.7298 257.2125 345.3945 N.am           1 RES1               0.0000
     11 O11        114.8313 259.4484 345.1859 O.2            1 RES1               0.0000
     12 C12        117.2347 260.7140 346.4256 C.3            1 RES1               0.0000
     13 C13        115.1578 260.4629 350.2114 C.ar           1 RES1               0.0000
     14 C14        113.1625 260.1623 348.9434 C.ar           1 RES1               0.0000
     15 C15        114.9372 256.0240 346.0402 C.2            1 RES1               0.0000
     16 C16        113.8012 260.6567 350.0607 C.ar           1 RES1               0.0000
     17 O17        114.4635 254.9639 345.6417 O.2            1 RES1               0.0000
     18 H18        118.1223 259.0403 347.4258 H              1 RES1               0.0000
     19 H19        117.7536 258.7610 345.7145 H              1 RES1               0.0000
     20 H20        116.9417 259.6315 349.3829 H              1 RES1               0.0000
     21 H21        113.3544 259.0946 347.1064 H              1 RES1               0.0000
     22 H22        115.7906 255.2109 347.7076 H              1 RES1               0.0000
     23 H23        114.1992 257.1777 344.5299 H              1 RES1               0.0000
     24 H24        118.1889 261.1567 346.1478 H              1 RES1               0.0000
     25 H25        116.5200 260.9241 345.6326 H              1 RES1               0.0000
     26 H26        116.8864 261.2017 347.3338 H              1 RES1               0.0000
     27 H27        115.6650 260.8489 351.0895 H              1 RES1               0.0000
     28 H28        112.0949 260.3119 348.8210 H              1 RES1               0.0000
     29 H29        113.2395 261.1949 350.8170 H              1 RES1               0.0000
@<TRIPOS>BOND
    1    1    2 1     
    2    1    3 1     
    3    1    4 1     
    4    1    5 1     
    5    2    6 ar    
    6    2    7 ar    
    7    3    8 1     
    8    3    9 2     
    9    4   10 1     
   10    4   11 2     
   11    5   12 1     
   12    5   18 1     
   13    5   19 1     
   14    6   13 ar    
   15    6   20 1     
   16    7   14 ar    
   17    7   21 1     
   18    8   15 1     
   19    8   22 1     
   20   10   15 1     
   21   10   23 1     
   22   12   24 1     
   23   12   25 1     
   24   12   26 1     
   25   13   16 ar    
   26   13   27 1     
   27   14   16 ar    
   28   14   28 1     
   29   15   17 2     
   30   16   29 1     
@<TRIPOS>SUBSTRUCTURE
      1 RES1           1
@<TRIPOS>SET
DONOR_HYDROGENS      STATIC     ATOMS    <user>   **** ""
2 22 23
ATOM$RED        STATIC     ATOMS    COLORGROUP SYSTEM
2 22 23
@<TRIPOS>COMMENT
> <Gold.Version>
2022.3.0

> <Gold.Id.Protein>
unknown|5adg_clean|pdb

> <Gold.Protein.RotatedTorsions>
[ 1111 1100 1101 1102 ] final   56.37 input   86.23 | X-H torsion
[ 1141 1124 1125 1126 ] final  172.85 input   63.27 | X-H torsion
[ 1161 1154 1155 1156 ] final -157.71 input  128.69 | X-H torsion
[ 1181 1170 1171 1172 ] final  105.89 input   75.71 | X-H torsion
[ 1185 1175 1174 1171 ] final  -99.64 input   60.03 | X-H torsion
[ 1205 1194 1195 1196 ] final -176.43 input   99.83 | X-H torsion
[ 1241 1232 1233 1234 ] final -107.92 input  109.94 | X-H torsion
[ 13453 13433 13432 13430 ] final  -27.87 input   60.02 | X-H torsion
[ 11610 11589 11588 11586 ] final   73.84 input   59.96 | X-H torsion
[ 11931 11915 11916 11917 ] final   45.70 input  122.96 | X-H torsion
[ 13465 1067 1066 1065 ] final   91.03 input   -0.00 | X-H torsion
[ 13468 1103 1102 1101 ] final  -25.11 input   -0.00 | X-H torsion
[ 13471 1127 1126 1125 ] final  108.01 input   -0.00 | X-H torsion
[ 13476 1157 1156 1155 ] final   57.69 input    0.00 | X-H torsion
[ 13479 1173 1172 1171 ] final -131.41 input    0.00 | X-H torsion
[ 13484 1197 1196 1195 ] final  108.31 input   -0.00 | X-H torsion

> <Gold.Protein.ActiveResidues>
 VAL308  THR329  CYS331  ILE335  CYS336  MET337  GLY338  SER339  ILE340  MET341 
 PRO343  SER418  ARG419  ARG423  PHE663  TYR671  CYS677  PRO678  ALA679  ASP680 
 TRP681  VAL682  TRP683  ILE684  VAL685  VAL695  GLN698  GLU699  MET700  LEU701 
 ASN702  TYR703  H4B760 

> <Gold.Protein.RotatedAtoms>
  109.7156  260.4957  345.2245 H   0  0  0  0  0  0  0  0  0  0  0  0  # atno 1111 bound_to 1100
  109.7501  260.1039  341.9545 H   0  0  0  0  0  0  0  0  0  0  0  0  # atno 1141 bound_to 1124
  111.7788  258.3011  340.4153 H   0  0  0  0  0  0  0  0  0  0  0  0  # atno 1161 bound_to 1154
  111.1010  254.8255  341.0366 H   0  0  0  0  0  0  0  0  0  0  0  0  # atno 1181 bound_to 1170
  109.9517  253.1694  342.5539 H   0  0  0  0  0  0  0  0  0  0  0  0  # atno 1185 bound_to 1175
  108.8543  254.4224  339.4369 H   0  0  0  0  0  0  0  0  0  0  0  0  # atno 1205 bound_to 1194
  108.3064  253.2830  336.1887 H   0  0  0  0  0  0  0  0  0  0  0  0  # atno 1241 bound_to 1232
  102.5174  253.2850  345.2596 H   0  0  0  0  0  0  0  0  0  0  0  0  # atno 11610 bound_to 11589
  117.9434  251.6794  337.5740 H   0  0  0  0  0  0  0  0  0  0  0  0  # atno 11931 bound_to 11915
  110.7075  249.8026  336.6180 H   0  0  0  0  0  0  0  0  0  0  0  0  # atno 13453 bound_to 13433
  110.5692  263.4490  343.1133 LP  0  0  0  0  0  0  0  0  0  0  0  0  # atno 13465 bound_to 1067
  109.2227  262.6271  342.3983 LP  0  0  0  0  0  0  0  0  0  0  0  0  # atno 13466 bound_to 1067
  110.1371  262.0390  344.5245 LP  0  0  0  0  0  0  0  0  0  0  0  0  # atno 13467 bound_to 1100
  109.5975  258.4037  344.3861 LP  0  0  0  0  0  0  0  0  0  0  0  0  # atno 13468 bound_to 1103
  108.5844  258.2628  342.9884 LP  0  0  0  0  0  0  0  0  0  0  0  0  # atno 13469 bound_to 1103
  111.2506  259.2886  341.5767 LP  0  0  0  0  0  0  0  0  0  0  0  0  # atno 13470 bound_to 1124
  110.4910  257.2861  337.9622 LP  0  0  0  0  0  0  0  0  0  0  0  0  # atno 13471 bound_to 1127
  109.4212  256.2367  338.8307 LP  0  0  0  0  0  0  0  0  0  0  0  0  # atno 13472 bound_to 1127
  110.8531  256.8919  340.8869 LP  0  0  0  0  0  0  0  0  0  0  0  0  # atno 13475 bound_to 1154
  113.7921  254.2868  338.5937 LP  0  0  0  0  0  0  0  0  0  0  0  0  # atno 13476 bound_to 1157
  112.2993  254.1345  337.7288 LP  0  0  0  0  0  0  0  0  0  0  0  0  # atno 13477 bound_to 1157
  111.6096  255.0891  339.3891 LP  0  0  0  0  0  0  0  0  0  0  0  0  # atno 13478 bound_to 1170
  108.5647  251.8219  337.7603 LP  0  0  0  0  0  0  0  0  0  0  0  0  # atno 13479 bound_to 1173
  108.6816  251.4215  339.4414 LP  0  0  0  0  0  0  0  0  0  0  0  0  # atno 13480 bound_to 1173
  109.0978  251.8456  342.1475 LP  0  0  0  0  0  0  0  0  0  0  0  0  # atno 13481 bound_to 1175
  108.9321  253.2237  341.2874 LP  0  0  0  0  0  0  0  0  0  0  0  0  # atno 13482 bound_to 1175
  109.9261  254.1180  338.0925 LP  0  0  0  0  0  0  0  0  0  0  0  0  # atno 13483 bound_to 1194
  110.1928  254.0637  335.5168 LP  0  0  0  0  0  0  0  0  0  0  0  0  # atno 13484 bound_to 1197
  109.2892  255.5351  335.3807 LP  0  0  0  0  0  0  0  0  0  0  0  0  # atno 13485 bound_to 1197
  106.6894  253.1848  335.5484 LP  0  0  0  0  0  0  0  0  0  0  0  0  # atno 13504 bound_to 1232
  110.5990  250.3100  338.1603 LP  0  0  0  0  0  0  0  0  0  0  0  0  # atno 13509 bound_to 13433
  109.2908  250.3681  337.1847 LP  0  0  0  0  0  0  0  0  0  0  0  0  # atno 13510 bound_to 13433

> <Gold.Score>
     Fitness  S(hb_ext) S(vdw_ext)  S(hb_int)    S(int)      intcor
     26.96       2.20      20.17       0.00      -2.96      -0.78

> <Gold.Goldscore.Fitness>
26.9641

> <Gold.Goldscore.Internal.Vdw>
-3.0099

> <Gold.Goldscore.Internal.Torsion>
-0.7350

> <Gold.Goldscore.External.Vdw>
20.1679

> <Gold.Goldscore.Internal.HBond>
0.0000

> <Gold.Goldscore.External.HBond>
2.1961

> <Gold.Goldscore.Internal.Correction>
-0.7819

> <Gold.Goldscore.Hbonds>
donor molecule, donor type, donor heavy atom, donor atom, acceptor molecule, acceptor atom, score
      P1  H 11908 11922       L1    17  0.04
      P1  H  3498  3535       L1     9  0.19
      L1  H     8    22       P1 11843  0.17

> <Gold.Goldscore.Internal.Vdw.Weighted>
-3.0099

> <Gold.Goldscore.Internal.Torsion.Weighted>
-0.7350

> <Gold.Goldscore.External.Vdw.Weighted>
27.7309

> <Gold.Goldscore.Internal.HBond.Weighted>
0.0000

> <Gold.Goldscore.External.HBond.Weighted>
2.1961

> <Gold.Goldscore.Internal.Correction.Weighted>
-0.7819

> <Gold.Rescore>
     Score     S(PLP)   S(hbond)     S(cho)   S(metal)  DE(clash)   DE(tors)     intcor
     20.82     -17.74       1.51       0.00       0.00       1.41       0.03       ----

> <Gold.PLP.Fitness>
20.8199

> <Gold.PLP.PLP>
-17.7432

> <Gold.PLP.part.hbond>
-2.9414

> <Gold.PLP.part.metal>
0.0000

> <Gold.PLP.part.buried>
14.6730

> <Gold.PLP.part.nonpolar>
-33.5011

> <Gold.PLP.part.repulsive>
3.2837

> <Gold.PLP.ligand.clash>
1.4100

> <Gold.PLP.ligand.torsion>
0.0274

> <Gold.PLP.Chemscore.Hbond>
1.5138

> <Gold.PLP.Chemscore.CHOScore>
0.0000

> <Gold.PLP.Chemscore.Metal>
0.0000

> <Gold.Chemscore.Hbonds>
donor molecule, donor type, donor heavy atom, donor atom, acceptor molecule, acceptor atom, score
      L1  H     8    22       P1 11843  0.23
      P1  H  3498  3535       L1     9  0.77

> <Gold.PLP.Chemscore.Internal.Correction>
   9.000000E+99

