#       Name:                CT1002167954
#       Creating user name   hitesit
#       Creation time:       Sun Apr 16 22:52:06 2023


#       File generated by GOLD software.
#

@<TRIPOS>MOLECULE
CT1002167954|ligand_prepared|mol2|1|dock8
    29    30     1
SMALL
NO_CHARGES


@<TRIPOS>ATOM
      1 C1         115.2442 259.8803 350.5915 C.3            1 RES1               0.0000
      2 C2         115.9503 259.2151 349.3924 C.ar           1 RES1               0.0000
      3 C3         113.9423 260.4649 350.0515 C.2            1 RES1               0.0000
      4 C4         115.0491 258.7843 351.6333 C.2            1 RES1               0.0000
      5 C5         116.0610 261.0198 351.2440 C.3            1 RES1               0.0000
      6 C6         115.4600 259.3803 348.1005 C.ar           1 RES1               0.0000
      7 C7         117.0924 258.4370 349.5618 C.ar           1 RES1               0.0000
      8 N8         112.7817 259.8232 350.3694 N.am           1 RES1               0.0000
      9 O9         113.9375 261.4512 349.3253 O.2            1 RES1               0.0000
     10 N10        113.7670 258.4058 351.9347 N.am           1 RES1               0.0000
     11 O11        115.9945 258.2336 352.1838 O.2            1 RES1               0.0000
     12 C12        115.3229 261.7418 352.3603 C.3            1 RES1               0.0000
     13 C13        116.0902 258.7915 347.0168 C.ar           1 RES1               0.0000
     14 C14        117.7210 257.8488 348.4767 C.ar           1 RES1               0.0000
     15 C15        112.6256 258.8540 351.3276 C.2            1 RES1               0.0000
     16 C16        117.2212 258.0258 347.2041 C.ar           1 RES1               0.0000
     17 O17        111.5118 258.4258 351.6158 O.2            1 RES1               0.0000
     18 H18        116.9906 260.6010 351.6486 H              1 RES1               0.0000
     19 H19        116.3307 261.7489 350.4700 H              1 RES1               0.0000
     20 H20        114.5696 259.9774 347.9340 H              1 RES1               0.0000
     21 H21        117.5027 258.2831 350.5541 H              1 RES1               0.0000
     22 H22        111.9532 260.0882 349.8463 H              1 RES1               0.0000
     23 H23        113.6530 257.7271 352.6808 H              1 RES1               0.0000
     24 H24        115.9404 262.5313 352.7835 H              1 RES1               0.0000
     25 H25        114.4053 262.1922 351.9877 H              1 RES1               0.0000
     26 H26        115.0612 261.0511 353.1593 H              1 RES1               0.0000
     27 H27        115.6921 258.9327 346.0174 H              1 RES1               0.0000
     28 H28        118.6105 257.2465 348.6289 H              1 RES1               0.0000
     29 H29        117.7150 257.5649 346.3549 H              1 RES1               0.0000
@<TRIPOS>BOND
    1    1    2 1     
    2    1    3 1     
    3    1    4 1     
    4    1    5 1     
    5    2    6 ar    
    6    2    7 ar    
    7    3    8 1     
    8    3    9 2     
    9    4   10 1     
   10    4   11 2     
   11    5   12 1     
   12    5   18 1     
   13    5   19 1     
   14    6   13 ar    
   15    6   20 1     
   16    7   14 ar    
   17    7   21 1     
   18    8   15 1     
   19    8   22 1     
   20   10   15 1     
   21   10   23 1     
   22   12   24 1     
   23   12   25 1     
   24   12   26 1     
   25   13   16 ar    
   26   13   27 1     
   27   14   16 ar    
   28   14   28 1     
   29   15   17 2     
   30   16   29 1     
@<TRIPOS>SUBSTRUCTURE
      1 RES1           1
@<TRIPOS>SET
DONOR_HYDROGENS      STATIC     ATOMS    <user>   **** ""
2 22 23
ATOM$RED        STATIC     ATOMS    COLORGROUP SYSTEM
2 22 23
@<TRIPOS>COMMENT
> <Gold.Version>
2022.3.0

> <Gold.Id.Protein>
unknown|5adg_clean|pdb

> <Gold.Protein.RotatedTorsions>
[ 1111 1100 1101 1102 ] final  -80.37 input   86.23 | X-H torsion
[ 1141 1124 1125 1126 ] final  -63.76 input   63.27 | X-H torsion
[ 1161 1154 1155 1156 ] final  -48.85 input  128.69 | X-H torsion
[ 1181 1170 1171 1172 ] final   30.59 input   75.71 | X-H torsion
[ 1185 1175 1174 1171 ] final   43.83 input   60.03 | X-H torsion
[ 1205 1194 1195 1196 ] final  125.68 input   99.83 | X-H torsion
[ 1241 1232 1233 1234 ] final  -26.67 input  109.94 | X-H torsion
[ 13453 13433 13432 13430 ] final -108.04 input   60.02 | X-H torsion
[ 11610 11589 11588 11586 ] final -121.15 input   59.96 | X-H torsion
[ 11931 11915 11916 11917 ] final -116.24 input  122.96 | X-H torsion
[ 13465 1067 1066 1065 ] final  -13.00 input   -0.00 | X-H torsion
[ 13468 1103 1102 1101 ] final -175.83 input   -0.00 | X-H torsion
[ 13471 1127 1126 1125 ] final  -78.93 input   -0.00 | X-H torsion
[ 13476 1157 1156 1155 ] final  -24.51 input    0.00 | X-H torsion
[ 13479 1173 1172 1171 ] final -178.58 input    0.00 | X-H torsion
[ 13484 1197 1196 1195 ] final   73.65 input   -0.00 | X-H torsion

> <Gold.Protein.ActiveResidues>
 VAL308  THR329  CYS331  ILE335  CYS336  MET337  GLY338  SER339  ILE340  MET341 
 PRO343  SER418  ARG419  ARG423  PHE663  TYR671  CYS677  PRO678  ALA679  ASP680 
 TRP681  VAL682  TRP683  ILE684  VAL685  VAL695  GLN698  GLU699  MET700  LEU701 
 ASN702  TYR703  H4B760 

> <Gold.Protein.RotatedAtoms>
  109.6070  261.8043  344.2443 H   0  0  0  0  0  0  0  0  0  0  0  0  # atno 1111 bound_to 1100
  110.8340  259.0163  342.2406 H   0  0  0  0  0  0  0  0  0  0  0  0  # atno 1141 bound_to 1124
  110.7484  257.3740  339.9954 H   0  0  0  0  0  0  0  0  0  0  0  0  # atno 1161 bound_to 1154
  110.5258  255.2380  340.2319 H   0  0  0  0  0  0  0  0  0  0  0  0  # atno 1181 bound_to 1170
  108.7738  252.8773  341.2556 H   0  0  0  0  0  0  0  0  0  0  0  0  # atno 1185 bound_to 1175
  109.2076  255.0845  339.0329 H   0  0  0  0  0  0  0  0  0  0  0  0  # atno 1205 bound_to 1194
  107.6662  254.0675  335.6716 H   0  0  0  0  0  0  0  0  0  0  0  0  # atno 1241 bound_to 1232
  102.2564  254.9526  346.0322 H   0  0  0  0  0  0  0  0  0  0  0  0  # atno 11610 bound_to 11589
  118.4268  251.1787  339.1840 H   0  0  0  0  0  0  0  0  0  0  0  0  # atno 11931 bound_to 11915
  111.0255  250.0643  337.7511 H   0  0  0  0  0  0  0  0  0  0  0  0  # atno 13453 bound_to 13433
  109.2212  263.5539  342.9251 LP  0  0  0  0  0  0  0  0  0  0  0  0  # atno 13465 bound_to 1067
  110.5707  262.5223  342.5866 LP  0  0  0  0  0  0  0  0  0  0  0  0  # atno 13466 bound_to 1067
  110.2436  260.7549  345.4864 LP  0  0  0  0  0  0  0  0  0  0  0  0  # atno 13467 bound_to 1100
  108.8715  257.9346  342.9504 LP  0  0  0  0  0  0  0  0  0  0  0  0  # atno 13468 bound_to 1103
  109.3104  258.7320  344.4240 LP  0  0  0  0  0  0  0  0  0  0  0  0  # atno 13469 bound_to 1103
  110.1974  260.3454  341.2987 LP  0  0  0  0  0  0  0  0  0  0  0  0  # atno 13470 bound_to 1124
  109.5018  256.1697  338.8364 LP  0  0  0  0  0  0  0  0  0  0  0  0  # atno 13471 bound_to 1127
  110.4104  257.3530  337.9565 LP  0  0  0  0  0  0  0  0  0  0  0  0  # atno 13472 bound_to 1127
  111.8489  257.7879  341.2926 LP  0  0  0  0  0  0  0  0  0  0  0  0  # atno 13475 bound_to 1154
  113.2983  254.9686  337.8271 LP  0  0  0  0  0  0  0  0  0  0  0  0  # atno 13476 bound_to 1157
  112.7931  253.4527  338.4954 LP  0  0  0  0  0  0  0  0  0  0  0  0  # atno 13477 bound_to 1157
  112.1781  254.6814  340.1843 LP  0  0  0  0  0  0  0  0  0  0  0  0  # atno 13478 bound_to 1170
  108.0264  252.0437  338.1362 LP  0  0  0  0  0  0  0  0  0  0  0  0  # atno 13479 bound_to 1173
  109.2198  251.1998  339.0654 LP  0  0  0  0  0  0  0  0  0  0  0  0  # atno 13480 bound_to 1173
  109.8647  253.4550  342.3153 LP  0  0  0  0  0  0  0  0  0  0  0  0  # atno 13481 bound_to 1175
  109.3521  251.9086  342.4278 LP  0  0  0  0  0  0  0  0  0  0  0  0  # atno 13482 bound_to 1175
  109.5789  253.4672  338.4896 LP  0  0  0  0  0  0  0  0  0  0  0  0  # atno 13483 bound_to 1194
  110.2532  254.3226  335.9590 LP  0  0  0  0  0  0  0  0  0  0  0  0  # atno 13484 bound_to 1197
  109.2288  255.2761  334.9385 LP  0  0  0  0  0  0  0  0  0  0  0  0  # atno 13485 bound_to 1197
  107.3264  252.4044  336.0628 LP  0  0  0  0  0  0  0  0  0  0  0  0  # atno 13504 bound_to 1232
  109.4602  250.5076  337.7884 LP  0  0  0  0  0  0  0  0  0  0  0  0  # atno 13509 bound_to 13433
  110.1093  249.9071  336.4155 LP  0  0  0  0  0  0  0  0  0  0  0  0  # atno 13510 bound_to 13433

> <Gold.Score>
     Fitness  S(hb_ext) S(vdw_ext)  S(hb_int)    S(int)      intcor
     25.74       0.00      23.82       0.00      -7.00      -0.77

> <Gold.Goldscore.Fitness>
25.7446

> <Gold.Goldscore.Internal.Vdw>
-7.3707

> <Gold.Goldscore.Internal.Torsion>
-0.3981

> <Gold.Goldscore.External.Vdw>
23.8169

> <Gold.Goldscore.Internal.HBond>
0.0000

> <Gold.Goldscore.External.HBond>
0.0000

> <Gold.Goldscore.Internal.Correction>
-0.7653

> <Gold.Goldscore.Internal.Vdw.Weighted>
-7.3707

> <Gold.Goldscore.Internal.Torsion.Weighted>
-0.3981

> <Gold.Goldscore.External.Vdw.Weighted>
32.7482

> <Gold.Goldscore.Internal.HBond.Weighted>
0.0000

> <Gold.Goldscore.External.HBond.Weighted>
0.0000

> <Gold.Goldscore.Internal.Correction.Weighted>
-0.7653

> <Gold.Rescore>
     Score     S(PLP)   S(hbond)     S(cho)   S(metal)  DE(clash)   DE(tors)     intcor
     32.79     -34.78       0.08       0.00       0.00       0.59       0.81       ----

> <Gold.PLP.Fitness>
32.7881

> <Gold.PLP.PLP>
-34.7787

> <Gold.PLP.part.hbond>
-2.0000

> <Gold.PLP.part.metal>
0.0000

> <Gold.PLP.part.buried>
-5.8463

> <Gold.PLP.part.nonpolar>
-27.6213

> <Gold.PLP.part.repulsive>
0.3852

> <Gold.PLP.ligand.clash>
0.5928

> <Gold.PLP.ligand.torsion>
0.8116

> <Gold.PLP.Chemscore.Hbond>
0.0751

> <Gold.PLP.Chemscore.CHOScore>
0.0000

> <Gold.PLP.Chemscore.Metal>
0.0000

> <Gold.PLP.Chemscore.Internal.Correction>
   9.000000E+99

