#       Name:                CT1002167954
#       Creating user name   hitesit
#       Creation time:       Sun Apr 16 22:52:03 2023


#       File generated by GOLD software.
#

@<TRIPOS>MOLECULE
CT1002167954|ligand_prepared|mol2|1|dock5
    29    30     1
SMALL
NO_CHARGES


@<TRIPOS>ATOM
      1 C1         115.3329 259.4782 350.8395 C.3            1 RES1               0.0000
      2 C2         115.9382 259.4082 349.4227 C.ar           1 RES1               0.0000
      3 C3         114.4408 260.7159 350.8637 C.2            1 RES1               0.0000
      4 C4         114.5834 258.1669 351.0484 C.2            1 RES1               0.0000
      5 C5         116.3869 259.6103 351.9634 C.3            1 RES1               0.0000
      6 C6         117.0460 258.6066 349.1642 C.ar           1 RES1               0.0000
      7 C7         115.3992 260.1362 348.3653 C.ar           1 RES1               0.0000
      8 N8         113.0910 260.5223 350.8426 N.am           1 RES1               0.0000
      9 O9         114.9148 261.8453 350.8613 O.2            1 RES1               0.0000
     10 N10        113.2204 258.2203 351.1797 N.am           1 RES1               0.0000
     11 O11        115.1592 257.0864 351.0839 O.2            1 RES1               0.0000
     12 C12        115.7873 259.8275 353.3438 C.3            1 RES1               0.0000
     13 C13        117.5934 258.5330 347.8940 C.ar           1 RES1               0.0000
     14 C14        115.9482 260.0614 347.0959 C.ar           1 RES1               0.0000
     15 C15        112.4372 259.3353 351.0556 C.2            1 RES1               0.0000
     16 C16        117.0447 259.2599 346.8590 C.ar           1 RES1               0.0000
     17 O17        111.2126 259.2948 351.1323 O.2            1 RES1               0.0000
     18 H18        116.9980 258.6996 351.9833 H              1 RES1               0.0000
     19 H19        117.0488 260.4532 351.7294 H              1 RES1               0.0000
     20 H20        117.4929 258.0292 349.9667 H              1 RES1               0.0000
     21 H21        114.5372 260.7742 348.5285 H              1 RES1               0.0000
     22 H22        112.5143 261.3353 350.6508 H              1 RES1               0.0000
     23 H23        112.7458 257.3479 351.3896 H              1 RES1               0.0000
     24 H24        116.5696 259.9136 354.0950 H              1 RES1               0.0000
     25 H25        115.1932 260.7387 353.3673 H              1 RES1               0.0000
     26 H26        115.1427 258.9955 353.6196 H              1 RES1               0.0000
     27 H27        118.4571 257.9018 347.7131 H              1 RES1               0.0000
     28 H28        115.5135 260.6357 346.2844 H              1 RES1               0.0000
     29 H29        117.4734 259.2017 345.8640 H              1 RES1               0.0000
@<TRIPOS>BOND
    1    1    2 1     
    2    1    3 1     
    3    1    4 1     
    4    1    5 1     
    5    2    6 ar    
    6    2    7 ar    
    7    3    8 1     
    8    3    9 2     
    9    4   10 1     
   10    4   11 2     
   11    5   12 1     
   12    5   18 1     
   13    5   19 1     
   14    6   13 ar    
   15    6   20 1     
   16    7   14 ar    
   17    7   21 1     
   18    8   15 1     
   19    8   22 1     
   20   10   15 1     
   21   10   23 1     
   22   12   24 1     
   23   12   25 1     
   24   12   26 1     
   25   13   16 ar    
   26   13   27 1     
   27   14   16 ar    
   28   14   28 1     
   29   15   17 2     
   30   16   29 1     
@<TRIPOS>SUBSTRUCTURE
      1 RES1           1
@<TRIPOS>SET
DONOR_HYDROGENS      STATIC     ATOMS    <user>   **** ""
2 22 23
ATOM$RED        STATIC     ATOMS    COLORGROUP SYSTEM
2 22 23
@<TRIPOS>COMMENT
> <Gold.Version>
2022.3.0

> <Gold.Id.Protein>
unknown|5adg_clean|pdb

> <Gold.Protein.RotatedTorsions>
[ 1111 1100 1101 1102 ] final   30.84 input   86.23 | X-H torsion
[ 1141 1124 1125 1126 ] final  -27.67 input   63.27 | X-H torsion
[ 1161 1154 1155 1156 ] final  118.26 input  128.69 | X-H torsion
[ 1181 1170 1171 1172 ] final  -30.09 input   75.71 | X-H torsion
[ 1185 1175 1174 1171 ] final  -86.14 input   60.03 | X-H torsion
[ 1205 1194 1195 1196 ] final  159.50 input   99.83 | X-H torsion
[ 1241 1232 1233 1234 ] final   27.69 input  109.94 | X-H torsion
[ 13453 13433 13432 13430 ] final -167.34 input   60.02 | X-H torsion
[ 11610 11589 11588 11586 ] final  139.50 input   59.96 | X-H torsion
[ 11931 11915 11916 11917 ] final   72.88 input  122.96 | X-H torsion
[ 13465 1067 1066 1065 ] final -108.06 input   -0.00 | X-H torsion
[ 13468 1103 1102 1101 ] final -160.39 input   -0.00 | X-H torsion
[ 13471 1127 1126 1125 ] final  164.28 input   -0.00 | X-H torsion
[ 13476 1157 1156 1155 ] final  -90.38 input    0.00 | X-H torsion
[ 13479 1173 1172 1171 ] final -164.21 input    0.00 | X-H torsion
[ 13484 1197 1196 1195 ] final -175.43 input   -0.00 | X-H torsion

> <Gold.Protein.ActiveResidues>
 VAL308  THR329  CYS331  ILE335  CYS336  MET337  GLY338  SER339  ILE340  MET341 
 PRO343  SER418  ARG419  ARG423  PHE663  TYR671  CYS677  PRO678  ALA679  ASP680 
 TRP681  VAL682  TRP683  ILE684  VAL685  VAL695  GLN698  GLU699  MET700  LEU701 
 ASN702  TYR703  H4B760 

> <Gold.Protein.RotatedAtoms>
  109.4374  260.5477  344.9569 H   0  0  0  0  0  0  0  0  0  0  0  0  # atno 1111 bound_to 1100
  111.1788  259.1096  341.8229 H   0  0  0  0  0  0  0  0  0  0  0  0  # atno 1141 bound_to 1124
  111.8030  257.6219  341.3942 H   0  0  0  0  0  0  0  0  0  0  0  0  # atno 1161 bound_to 1154
  110.9927  255.2854  339.4801 H   0  0  0  0  0  0  0  0  0  0  0  0  # atno 1181 bound_to 1170
  109.9123  253.3421  342.4234 H   0  0  0  0  0  0  0  0  0  0  0  0  # atno 1185 bound_to 1175
  108.9492  254.7624  339.3362 H   0  0  0  0  0  0  0  0  0  0  0  0  # atno 1205 bound_to 1194
  106.9456  253.7868  335.4753 H   0  0  0  0  0  0  0  0  0  0  0  0  # atno 1241 bound_to 1232
  101.9828  254.0838  344.9332 H   0  0  0  0  0  0  0  0  0  0  0  0  # atno 11610 bound_to 11589
  117.7125  251.9672  337.7690 H   0  0  0  0  0  0  0  0  0  0  0  0  # atno 11931 bound_to 11915
  110.3013  250.4060  338.2169 H   0  0  0  0  0  0  0  0  0  0  0  0  # atno 13453 bound_to 13433
  109.4321  262.4423  342.3317 LP  0  0  0  0  0  0  0  0  0  0  0  0  # atno 13465 bound_to 1067
  110.3598  263.6339  343.1800 LP  0  0  0  0  0  0  0  0  0  0  0  0  # atno 13466 bound_to 1067
  110.4101  261.9880  344.7871 LP  0  0  0  0  0  0  0  0  0  0  0  0  # atno 13467 bound_to 1100
  109.0510  257.7980  343.0076 LP  0  0  0  0  0  0  0  0  0  0  0  0  # atno 13468 bound_to 1103
  109.1309  258.8686  344.3669 LP  0  0  0  0  0  0  0  0  0  0  0  0  # atno 13469 bound_to 1103
  109.8623  260.2548  341.7045 LP  0  0  0  0  0  0  0  0  0  0  0  0  # atno 13470 bound_to 1124
  110.7803  256.5658  338.2162 LP  0  0  0  0  0  0  0  0  0  0  0  0  # atno 13471 bound_to 1127
  109.1319  256.9569  338.5768 LP  0  0  0  0  0  0  0  0  0  0  0  0  # atno 13472 bound_to 1127
  110.8297  257.5483  339.9408 LP  0  0  0  0  0  0  0  0  0  0  0  0  # atno 13475 bound_to 1154
  112.4930  254.5451  337.5845 LP  0  0  0  0  0  0  0  0  0  0  0  0  # atno 13476 bound_to 1157
  113.5984  253.8762  338.7380 LP  0  0  0  0  0  0  0  0  0  0  0  0  # atno 13477 bound_to 1157
  111.7167  254.6346  340.9273 LP  0  0  0  0  0  0  0  0  0  0  0  0  # atno 13478 bound_to 1170
  108.1625  252.0012  337.9732 LP  0  0  0  0  0  0  0  0  0  0  0  0  # atno 13479 bound_to 1173
  109.0837  251.2423  339.2284 LP  0  0  0  0  0  0  0  0  0  0  0  0  # atno 13480 bound_to 1173
  109.2421  251.8637  342.3149 LP  0  0  0  0  0  0  0  0  0  0  0  0  # atno 13481 bound_to 1175
  108.8276  253.0315  341.2515 LP  0  0  0  0  0  0  0  0  0  0  0  0  # atno 13482 bound_to 1175
  109.8329  253.7838  338.1915 LP  0  0  0  0  0  0  0  0  0  0  0  0  # atno 13483 bound_to 1194
  109.6081  254.4054  334.6891 LP  0  0  0  0  0  0  0  0  0  0  0  0  # atno 13484 bound_to 1197
  109.8738  255.1933  336.2085 LP  0  0  0  0  0  0  0  0  0  0  0  0  # atno 13485 bound_to 1197
  108.0431  252.6836  336.2581 LP  0  0  0  0  0  0  0  0  0  0  0  0  # atno 13504 bound_to 1232
  109.3645  250.2586  336.8945 LP  0  0  0  0  0  0  0  0  0  0  0  0  # atno 13509 bound_to 13433
  110.9342  249.8119  336.8405 LP  0  0  0  0  0  0  0  0  0  0  0  0  # atno 13510 bound_to 13433

> <Gold.Score>
     Fitness  S(hb_ext) S(vdw_ext)  S(hb_int)    S(int)      intcor
     31.74       0.15      23.86       0.00      -1.23      -0.77

> <Gold.Goldscore.Fitness>
31.7365

> <Gold.Goldscore.Internal.Vdw>
-1.5638

> <Gold.Goldscore.Internal.Torsion>
-0.4313

> <Gold.Goldscore.External.Vdw>
23.8642

> <Gold.Goldscore.Internal.HBond>
0.0000

> <Gold.Goldscore.External.HBond>
0.1530

> <Gold.Goldscore.Internal.Correction>
-0.7653

> <Gold.Goldscore.Hbonds>
donor molecule, donor type, donor heavy atom, donor atom, acceptor molecule, acceptor atom, score
      P1  H 12548 12568       L1    11  0.08

> <Gold.Goldscore.Internal.Vdw.Weighted>
-1.5638

> <Gold.Goldscore.Internal.Torsion.Weighted>
-0.4313

> <Gold.Goldscore.External.Vdw.Weighted>
32.8132

> <Gold.Goldscore.Internal.HBond.Weighted>
0.0000

> <Gold.Goldscore.External.HBond.Weighted>
0.1530

> <Gold.Goldscore.Internal.Correction.Weighted>
-0.7653

> <Gold.Rescore>
     Score     S(PLP)   S(hbond)     S(cho)   S(metal)  DE(clash)   DE(tors)     intcor
     33.63     -35.38       0.00       0.00       0.00       0.02       0.86       ----

> <Gold.PLP.Fitness>
33.6298

> <Gold.PLP.PLP>
-35.3788

> <Gold.PLP.part.hbond>
-3.6973

> <Gold.PLP.part.metal>
0.0000

> <Gold.PLP.part.buried>
-7.2955

> <Gold.PLP.part.nonpolar>
-25.5973

> <Gold.PLP.part.repulsive>
0.5534

> <Gold.PLP.ligand.clash>
0.0218

> <Gold.PLP.ligand.torsion>
0.8635

> <Gold.PLP.Chemscore.Hbond>
0.0000

> <Gold.PLP.Chemscore.CHOScore>
0.0000

> <Gold.PLP.Chemscore.Metal>
0.0000

> <Gold.PLP.Chemscore.Internal.Correction>
   9.000000E+99

