#       Name:                CT1002167954
#       Creating user name   hitesit
#       Creation time:       Sun Apr 16 22:52:04 2023


#       File generated by GOLD software.
#

@<TRIPOS>MOLECULE
CT1002167954|ligand_prepared|mol2|1|dock6
    29    30     1
SMALL
NO_CHARGES


@<TRIPOS>ATOM
      1 C1         113.7481 259.4222 351.2813 C.3            1 RES1               0.0000
      2 C2         114.0176 259.3792 349.7633 C.ar           1 RES1               0.0000
      3 C3         114.6131 258.3286 351.9011 C.2            1 RES1               0.0000
      4 C4         114.1058 260.8322 351.7382 C.2            1 RES1               0.0000
      5 C5         112.2730 259.1564 351.6618 C.3            1 RES1               0.0000
      6 C6         115.1978 258.8326 349.2683 C.ar           1 RES1               0.0000
      7 C7         113.0959 259.8789 348.8471 C.ar           1 RES1               0.0000
      8 N8         115.7203 258.7169 352.5963 N.am           1 RES1               0.0000
      9 O9         114.3496 257.1422 351.7487 O.2            1 RES1               0.0000
     10 N10        115.1680 260.9806 352.5911 N.am           1 RES1               0.0000
     11 O11        113.4877 261.8175 351.3543 O.2            1 RES1               0.0000
     12 C12        112.0554 258.9259 353.1490 C.3            1 RES1               0.0000
     13 C13        115.4463 258.7845 347.9066 C.ar           1 RES1               0.0000
     14 C14        113.3465 259.8301 347.4857 C.ar           1 RES1               0.0000
     15 C15        116.0105 259.9900 353.0165 C.2            1 RES1               0.0000
     16 C16        114.5209 259.2827 347.0144 C.ar           1 RES1               0.0000
     17 O17        116.9776 260.2102 353.7400 O.2            1 RES1               0.0000
     18 H18        111.6666 260.0139 351.3450 H              1 RES1               0.0000
     19 H19        111.9199 258.2749 351.1125 H              1 RES1               0.0000
     20 H20        115.9389 258.4378 349.9552 H              1 RES1               0.0000
     21 H21        112.1657 260.3150 349.1951 H              1 RES1               0.0000
     22 H22        116.3949 257.9937 352.8248 H              1 RES1               0.0000
     23 H23        115.3472 261.9163 352.9413 H              1 RES1               0.0000
     24 H24        111.0039 258.7443 353.3613 H              1 RES1               0.0000
     25 H25        112.6243 258.0646 353.4931 H              1 RES1               0.0000
     26 H26        112.3724 259.7933 353.7242 H              1 RES1               0.0000
     27 H27        116.3727 258.3540 347.5408 H              1 RES1               0.0000
     28 H28        112.6156 260.2239 346.7873 H              1 RES1               0.0000
     29 H29        114.7157 259.2446 345.9478 H              1 RES1               0.0000
@<TRIPOS>BOND
    1    1    2 1     
    2    1    3 1     
    3    1    4 1     
    4    1    5 1     
    5    2    6 ar    
    6    2    7 ar    
    7    3    8 1     
    8    3    9 2     
    9    4   10 1     
   10    4   11 2     
   11    5   12 1     
   12    5   18 1     
   13    5   19 1     
   14    6   13 ar    
   15    6   20 1     
   16    7   14 ar    
   17    7   21 1     
   18    8   15 1     
   19    8   22 1     
   20   10   15 1     
   21   10   23 1     
   22   12   24 1     
   23   12   25 1     
   24   12   26 1     
   25   13   16 ar    
   26   13   27 1     
   27   14   16 ar    
   28   14   28 1     
   29   15   17 2     
   30   16   29 1     
@<TRIPOS>SUBSTRUCTURE
      1 RES1           1
@<TRIPOS>SET
DONOR_HYDROGENS      STATIC     ATOMS    <user>   **** ""
2 22 23
ATOM$RED        STATIC     ATOMS    COLORGROUP SYSTEM
2 22 23
@<TRIPOS>COMMENT
> <Gold.Version>
2022.3.0

> <Gold.Id.Protein>
unknown|5adg_clean|pdb

> <Gold.Protein.RotatedTorsions>
[ 1111 1100 1101 1102 ] final   52.11 input   86.23 | X-H torsion
[ 1141 1124 1125 1126 ] final  175.74 input   63.27 | X-H torsion
[ 1161 1154 1155 1156 ] final  -43.11 input  128.69 | X-H torsion
[ 1181 1170 1171 1172 ] final  -47.88 input   75.71 | X-H torsion
[ 1185 1175 1174 1171 ] final  141.10 input   60.03 | X-H torsion
[ 1205 1194 1195 1196 ] final  -54.01 input   99.83 | X-H torsion
[ 1241 1232 1233 1234 ] final  123.91 input  109.94 | X-H torsion
[ 13453 13433 13432 13430 ] final  119.83 input   60.02 | X-H torsion
[ 11610 11589 11588 11586 ] final  134.98 input   59.96 | X-H torsion
[ 11931 11915 11916 11917 ] final  -25.02 input  122.96 | X-H torsion
[ 13465 1067 1066 1065 ] final -114.41 input   -0.00 | X-H torsion
[ 13468 1103 1102 1101 ] final -175.99 input   -0.00 | X-H torsion
[ 13471 1127 1126 1125 ] final  147.29 input   -0.00 | X-H torsion
[ 13476 1157 1156 1155 ] final  158.67 input    0.00 | X-H torsion
[ 13479 1173 1172 1171 ] final  116.43 input    0.00 | X-H torsion
[ 13484 1197 1196 1195 ] final  -88.77 input   -0.00 | X-H torsion

> <Gold.Protein.ActiveResidues>
 VAL308  THR329  CYS331  ILE335  CYS336  MET337  GLY338  SER339  ILE340  MET341 
 PRO343  SER418  ARG419  ARG423  PHE663  TYR671  CYS677  PRO678  ALA679  ASP680 
 TRP681  VAL682  TRP683  ILE684  VAL685  VAL695  GLN698  GLU699  MET700  LEU701 
 ASN702  TYR703  H4B760 

> <Gold.Protein.RotatedAtoms>
  109.6646  260.4937  345.1833 H   0  0  0  0  0  0  0  0  0  0  0  0  # atno 1111 bound_to 1100
  109.7456  260.0769  341.9898 H   0  0  0  0  0  0  0  0  0  0  0  0  # atno 1141 bound_to 1124
  110.7217  257.3055  340.0460 H   0  0  0  0  0  0  0  0  0  0  0  0  # atno 1161 bound_to 1154
  111.2392  255.2291  339.3820 H   0  0  0  0  0  0  0  0  0  0  0  0  # atno 1181 bound_to 1170
  109.1090  251.8514  342.1544 H   0  0  0  0  0  0  0  0  0  0  0  0  # atno 1185 bound_to 1175
  109.5890  253.4549  338.4848 H   0  0  0  0  0  0  0  0  0  0  0  0  # atno 1205 bound_to 1194
  106.9490  252.5532  335.8856 H   0  0  0  0  0  0  0  0  0  0  0  0  # atno 1241 bound_to 1232
  102.0065  254.0146  344.9229 H   0  0  0  0  0  0  0  0  0  0  0  0  # atno 11610 bound_to 11589
  118.5653  250.9493  337.9436 H   0  0  0  0  0  0  0  0  0  0  0  0  # atno 11931 bound_to 11915
  109.3699  250.4758  337.6143 H   0  0  0  0  0  0  0  0  0  0  0  0  # atno 13453 bound_to 13433
  109.5144  262.3945  342.3196 LP  0  0  0  0  0  0  0  0  0  0  0  0  # atno 13465 bound_to 1067
  110.2774  263.6817  343.1920 LP  0  0  0  0  0  0  0  0  0  0  0  0  # atno 13466 bound_to 1067
  110.1871  262.0410  344.5649 LP  0  0  0  0  0  0  0  0  0  0  0  0  # atno 13467 bound_to 1100
  108.8697  257.9361  342.9501 LP  0  0  0  0  0  0  0  0  0  0  0  0  # atno 13468 bound_to 1103
  109.3121  258.7304  344.4244 LP  0  0  0  0  0  0  0  0  0  0  0  0  # atno 13469 bound_to 1103
  111.2549  259.3149  341.5424 LP  0  0  0  0  0  0  0  0  0  0  0  0  # atno 13470 bound_to 1124
  110.7714  256.7969  338.1066 LP  0  0  0  0  0  0  0  0  0  0  0  0  # atno 13471 bound_to 1127
  109.1408  256.7258  338.6863 LP  0  0  0  0  0  0  0  0  0  0  0  0  # atno 13472 bound_to 1127
  111.8747  257.8541  341.2438 LP  0  0  0  0  0  0  0  0  0  0  0  0  # atno 13475 bound_to 1154
  112.7536  253.4553  338.4681 LP  0  0  0  0  0  0  0  0  0  0  0  0  # atno 13476 bound_to 1157
  113.3378  254.9659  337.8543 LP  0  0  0  0  0  0  0  0  0  0  0  0  # atno 13477 bound_to 1157
  111.4731  254.6902  341.0243 LP  0  0  0  0  0  0  0  0  0  0  0  0  # atno 13478 bound_to 1170
  107.9418  251.9073  339.0528 LP  0  0  0  0  0  0  0  0  0  0  0  0  # atno 13479 bound_to 1173
  109.3045  251.3362  338.1489 LP  0  0  0  0  0  0  0  0  0  0  0  0  # atno 13480 bound_to 1173
  108.9258  253.2138  341.2844 LP  0  0  0  0  0  0  0  0  0  0  0  0  # atno 13481 bound_to 1175
  109.9533  253.1835  342.5531 LP  0  0  0  0  0  0  0  0  0  0  0  0  # atno 13482 bound_to 1175
  109.2040  255.0689  339.0284 LP  0  0  0  0  0  0  0  0  0  0  0  0  # atno 13483 bound_to 1194
  109.2365  255.4363  335.1491 LP  0  0  0  0  0  0  0  0  0  0  0  0  # atno 13484 bound_to 1197
  110.2455  254.1624  335.7484 LP  0  0  0  0  0  0  0  0  0  0  0  0  # atno 13485 bound_to 1197
  108.0398  253.9108  335.8499 LP  0  0  0  0  0  0  0  0  0  0  0  0  # atno 13504 bound_to 1232
  110.3020  249.8592  336.4315 LP  0  0  0  0  0  0  0  0  0  0  0  0  # atno 13509 bound_to 13433
  110.9346  250.1411  337.9103 LP  0  0  0  0  0  0  0  0  0  0  0  0  # atno 13510 bound_to 13433

> <Gold.Score>
     Fitness  S(hb_ext) S(vdw_ext)  S(hb_int)    S(int)      intcor
     34.46       0.79      25.21       0.00      -1.00      -0.77

> <Gold.Goldscore.Fitness>
34.4558

> <Gold.Goldscore.Internal.Vdw>
-1.1917

> <Gold.Goldscore.Internal.Torsion>
-0.5760

> <Gold.Goldscore.External.Vdw>
25.2117

> <Gold.Goldscore.Internal.HBond>
0.0000

> <Gold.Goldscore.External.HBond>
0.7922

> <Gold.Goldscore.Internal.Correction>
-0.7653

> <Gold.Goldscore.Hbonds>
donor molecule, donor type, donor heavy atom, donor atom, acceptor molecule, acceptor atom, score
      P1  H 12548 12568       L1     9  0.40

> <Gold.Goldscore.Internal.Vdw.Weighted>
-1.1917

> <Gold.Goldscore.Internal.Torsion.Weighted>
-0.5760

> <Gold.Goldscore.External.Vdw.Weighted>
34.6661

> <Gold.Goldscore.Internal.HBond.Weighted>
0.0000

> <Gold.Goldscore.External.HBond.Weighted>
0.7922

> <Gold.Goldscore.Internal.Correction.Weighted>
-0.7653

> <Gold.Rescore>
     Score     S(PLP)   S(hbond)     S(cho)   S(metal)  DE(clash)   DE(tors)     intcor
     27.57     -30.05       0.00       0.00       0.00       1.12       0.68       ----

> <Gold.PLP.Fitness>
27.5683

> <Gold.PLP.PLP>
-30.0496

> <Gold.PLP.part.hbond>
-1.0000

> <Gold.PLP.part.metal>
0.0000

> <Gold.PLP.part.buried>
-6.8030

> <Gold.PLP.part.nonpolar>
-22.1916

> <Gold.PLP.part.repulsive>
0.2781

> <Gold.PLP.ligand.clash>
1.1232

> <Gold.PLP.ligand.torsion>
0.6790

> <Gold.PLP.Chemscore.Hbond>
0.0000

> <Gold.PLP.Chemscore.CHOScore>
0.0000

> <Gold.PLP.Chemscore.Metal>
0.0000

> <Gold.PLP.Chemscore.Internal.Correction>
   9.000000E+99

