#       Name:                CT1002167954
#       Creating user name   hitesit
#       Creation time:       Sun Apr 16 22:52:05 2023


#       File generated by GOLD software.
#

@<TRIPOS>MOLECULE
CT1002167954|ligand_prepared|mol2|1|dock7
    29    30     1
SMALL
NO_CHARGES


@<TRIPOS>ATOM
      1 C1         113.9479 255.3474 344.2977 C.3            1 RES1               0.0000
      2 C2         114.7002 256.2790 345.2699 C.ar           1 RES1               0.0000
      3 C3         112.8947 254.6210 345.1292 C.2            1 RES1               0.0000
      4 C4         113.3706 256.2443 343.2083 C.2            1 RES1               0.0000
      5 C5         114.8514 254.2920 343.6186 C.3            1 RES1               0.0000
      6 C6         115.8688 255.8553 345.8957 C.ar           1 RES1               0.0000
      7 C7         114.2402 257.5633 345.5482 C.ar           1 RES1               0.0000
      8 N8         111.5944 255.0020 344.9744 N.am           1 RES1               0.0000
      9 O9         113.2046 253.7543 345.9373 O.2            1 RES1               0.0000
     10 N10        112.0072 256.3494 343.1187 N.am           1 RES1               0.0000
     11 O11        114.0842 256.8740 342.4372 O.2            1 RES1               0.0000
     12 C12        114.2451 253.6812 342.3650 C.3            1 RES1               0.0000
     13 C13        116.5544 256.6865 346.7660 C.ar           1 RES1               0.0000
     14 C14        114.9272 258.3928 346.4191 C.ar           1 RES1               0.0000
     15 C15        111.0936 255.7931 343.9719 C.2            1 RES1               0.0000
     16 C16        116.0844 257.9558 347.0279 C.ar           1 RES1               0.0000
     17 O17        109.8852 255.9779 343.8585 O.2            1 RES1               0.0000
     18 H18        115.8072 254.7619 343.3558 H              1 RES1               0.0000
     19 H19        115.0588 253.4896 344.3375 H              1 RES1               0.0000
     20 H20        116.2526 254.8589 345.7037 H              1 RES1               0.0000
     21 H21        113.3315 257.9279 345.0816 H              1 RES1               0.0000
     22 H22        110.9332 254.6679 345.6684 H              1 RES1               0.0000
     23 H23        111.6394 256.8927 342.3442 H              1 RES1               0.0000
     24 H24        114.9196 252.9476 341.9284 H              1 RES1               0.0000
     25 H25        113.3053 253.1833 342.5943 H              1 RES1               0.0000
     26 H26        114.0492 254.4480 341.6184 H              1 RES1               0.0000
     27 H27        117.4639 256.3374 347.2437 H              1 RES1               0.0000
     28 H28        114.5534 259.3908 346.6228 H              1 RES1               0.0000
     29 H29        116.6219 258.6069 347.7094 H              1 RES1               0.0000
@<TRIPOS>BOND
    1    1    2 1     
    2    1    3 1     
    3    1    4 1     
    4    1    5 1     
    5    2    6 ar    
    6    2    7 ar    
    7    3    8 1     
    8    3    9 2     
    9    4   10 1     
   10    4   11 2     
   11    5   12 1     
   12    5   18 1     
   13    5   19 1     
   14    6   13 ar    
   15    6   20 1     
   16    7   14 ar    
   17    7   21 1     
   18    8   15 1     
   19    8   22 1     
   20   10   15 1     
   21   10   23 1     
   22   12   24 1     
   23   12   25 1     
   24   12   26 1     
   25   13   16 ar    
   26   13   27 1     
   27   14   16 ar    
   28   14   28 1     
   29   15   17 2     
   30   16   29 1     
@<TRIPOS>SUBSTRUCTURE
      1 RES1           1
@<TRIPOS>SET
DONOR_HYDROGENS      STATIC     ATOMS    <user>   **** ""
2 22 23
ATOM$RED        STATIC     ATOMS    COLORGROUP SYSTEM
2 22 23
@<TRIPOS>COMMENT
> <Gold.Version>
2022.3.0

> <Gold.Id.Protein>
unknown|5adg_clean|pdb

> <Gold.Protein.RotatedTorsions>
[ 1111 1100 1101 1102 ] final  -50.19 input   86.23 | X-H torsion
[ 1141 1124 1125 1126 ] final  -30.73 input   63.27 | X-H torsion
[ 1161 1154 1155 1156 ] final  127.88 input  128.69 | X-H torsion
[ 1181 1170 1171 1172 ] final   22.98 input   75.71 | X-H torsion
[ 1185 1175 1174 1171 ] final  -31.82 input   60.03 | X-H torsion
[ 1205 1194 1195 1196 ] final   23.23 input   99.83 | X-H torsion
[ 1241 1232 1233 1234 ] final  -16.36 input  109.94 | X-H torsion
[ 13453 13433 13432 13430 ] final  -69.91 input   60.02 | X-H torsion
[ 11610 11589 11588 11586 ] final  -15.01 input   59.96 | X-H torsion
[ 11931 11915 11916 11917 ] final -167.50 input  122.96 | X-H torsion
[ 13465 1067 1066 1065 ] final  171.23 input   -0.00 | X-H torsion
[ 13468 1103 1102 1101 ] final  149.20 input   -0.00 | X-H torsion
[ 13471 1127 1126 1125 ] final   73.79 input   -0.00 | X-H torsion
[ 13476 1157 1156 1155 ] final  105.40 input    0.00 | X-H torsion
[ 13479 1173 1172 1171 ] final   56.45 input    0.00 | X-H torsion
[ 13484 1197 1196 1195 ] final  -65.90 input   -0.00 | X-H torsion

> <Gold.Protein.ActiveResidues>
 VAL308  THR329  CYS331  ILE335  CYS336  MET337  GLY338  SER339  ILE340  MET341 
 PRO343  SER418  ARG419  ARG423  PHE663  TYR671  CYS677  PRO678  ALA679  ASP680 
 TRP681  VAL682  TRP683  ILE684  VAL685  VAL695  GLN698  GLU699  MET700  LEU701 
 ASN702  TYR703  H4B760 

> <Gold.Protein.RotatedAtoms>
  109.3235  261.4435  344.2528 H   0  0  0  0  0  0  0  0  0  0  0  0  # atno 1111 bound_to 1100
  111.1583  259.0919  341.8619 H   0  0  0  0  0  0  0  0  0  0  0  0  # atno 1141 bound_to 1124
  111.8654  257.7421  341.3312 H   0  0  0  0  0  0  0  0  0  0  0  0  # atno 1161 bound_to 1154
  110.5395  255.2640  340.1193 H   0  0  0  0  0  0  0  0  0  0  0  0  # atno 1181 bound_to 1170
  109.4768  253.6376  341.7507 H   0  0  0  0  0  0  0  0  0  0  0  0  # atno 1185 bound_to 1175
  109.9471  254.4158  338.0890 H   0  0  0  0  0  0  0  0  0  0  0  0  # atno 1205 bound_to 1194
  107.5207  254.0686  335.6128 H   0  0  0  0  0  0  0  0  0  0  0  0  # atno 1241 bound_to 1232
  103.0054  253.7099  346.3994 H   0  0  0  0  0  0  0  0  0  0  0  0  # atno 11610 bound_to 11589
  117.9415  251.7674  339.2738 H   0  0  0  0  0  0  0  0  0  0  0  0  # atno 11931 bound_to 11915
  111.0791  249.8717  337.1732 H   0  0  0  0  0  0  0  0  0  0  0  0  # atno 13453 bound_to 13433
  110.5301  262.4830  342.5567 LP  0  0  0  0  0  0  0  0  0  0  0  0  # atno 13465 bound_to 1067
  109.2617  263.5932  342.9549 LP  0  0  0  0  0  0  0  0  0  0  0  0  # atno 13466 bound_to 1067
  110.5219  261.1089  345.4781 LP  0  0  0  0  0  0  0  0  0  0  0  0  # atno 13467 bound_to 1100
  108.5417  258.3316  343.0176 LP  0  0  0  0  0  0  0  0  0  0  0  0  # atno 13468 bound_to 1103
  109.6401  258.3350  344.3569 LP  0  0  0  0  0  0  0  0  0  0  0  0  # atno 13469 bound_to 1103
  109.8823  260.2719  341.6667 LP  0  0  0  0  0  0  0  0  0  0  0  0  # atno 13470 bound_to 1124
  110.0419  257.5246  337.9962 LP  0  0  0  0  0  0  0  0  0  0  0  0  # atno 13471 bound_to 1127
  109.8703  255.9982  338.7967 LP  0  0  0  0  0  0  0  0  0  0  0  0  # atno 13472 bound_to 1127
  110.7694  257.4322  340.0017 LP  0  0  0  0  0  0  0  0  0  0  0  0  # atno 13475 bound_to 1154
  113.4350  253.7037  338.7456 LP  0  0  0  0  0  0  0  0  0  0  0  0  # atno 13476 bound_to 1157
  112.6564  254.7176  337.5769 LP  0  0  0  0  0  0  0  0  0  0  0  0  # atno 13477 bound_to 1157
  112.1646  254.6557  340.2956 LP  0  0  0  0  0  0  0  0  0  0  0  0  # atno 13478 bound_to 1170
  108.5771  251.4768  339.4534 LP  0  0  0  0  0  0  0  0  0  0  0  0  # atno 13479 bound_to 1173
  108.6691  251.7667  337.7483 LP  0  0  0  0  0  0  0  0  0  0  0  0  # atno 13480 bound_to 1173
  109.7879  252.3800  342.7347 LP  0  0  0  0  0  0  0  0  0  0  0  0  # atno 13481 bound_to 1175
  108.7206  252.2175  341.5095 LP  0  0  0  0  0  0  0  0  0  0  0  0  # atno 13482 bound_to 1175
  108.8520  254.1244  339.4174 LP  0  0  0  0  0  0  0  0  0  0  0  0  # atno 13483 bound_to 1194
  109.3164  255.5541  335.4617 LP  0  0  0  0  0  0  0  0  0  0  0  0  # atno 13484 bound_to 1197
  110.1655  254.0446  335.4359 LP  0  0  0  0  0  0  0  0  0  0  0  0  # atno 13485 bound_to 1197
  107.4711  252.4033  336.1213 LP  0  0  0  0  0  0  0  0  0  0  0  0  # atno 13504 bound_to 1232
  109.9470  250.4901  338.1652 LP  0  0  0  0  0  0  0  0  0  0  0  0  # atno 13509 bound_to 13433
  109.5685  250.1185  336.6207 LP  0  0  0  0  0  0  0  0  0  0  0  0  # atno 13510 bound_to 13433

> <Gold.Score>
     Fitness  S(hb_ext) S(vdw_ext)  S(hb_int)    S(int)      intcor
     12.20       2.07       8.08       0.00      -0.98      -0.77

> <Gold.Goldscore.Fitness>
12.2037

> <Gold.Goldscore.Internal.Vdw>
-0.8787

> <Gold.Goldscore.Internal.Torsion>
-0.8704

> <Gold.Goldscore.External.Vdw>
8.0838

> <Gold.Goldscore.Internal.HBond>
0.0000

> <Gold.Goldscore.External.HBond>
2.0723

> <Gold.Goldscore.Internal.Correction>
-0.7653

> <Gold.Goldscore.Hbonds>
donor molecule, donor type, donor heavy atom, donor atom, acceptor molecule, acceptor atom, score
      P1  H 11908 11922       L1     9  0.04
      L1  H     8    22       P1 11819  1.00

> <Gold.Goldscore.Internal.Vdw.Weighted>
-0.8787

> <Gold.Goldscore.Internal.Torsion.Weighted>
-0.8704

> <Gold.Goldscore.External.Vdw.Weighted>
11.1152

> <Gold.Goldscore.Internal.HBond.Weighted>
0.0000

> <Gold.Goldscore.External.HBond.Weighted>
2.0723

> <Gold.Goldscore.Internal.Correction.Weighted>
-0.7653

> <Gold.Rescore>
     Score     S(PLP)   S(hbond)     S(cho)   S(metal)  DE(clash)   DE(tors)     intcor
    -17.08      18.28       1.26       0.00       0.00       0.00       1.30       ----

> <Gold.PLP.Fitness>
-17.0800

> <Gold.PLP.PLP>
18.2770

> <Gold.PLP.part.hbond>
-5.7660

> <Gold.PLP.part.metal>
0.0000

> <Gold.PLP.part.buried>
37.6198

> <Gold.PLP.part.nonpolar>
-23.3010

> <Gold.PLP.part.repulsive>
11.3558

> <Gold.PLP.ligand.clash>
0.0000

> <Gold.PLP.ligand.torsion>
1.2951

> <Gold.PLP.Chemscore.Hbond>
1.2624

> <Gold.PLP.Chemscore.CHOScore>
0.0000

> <Gold.PLP.Chemscore.Metal>
0.0000

> <Gold.Chemscore.Hbonds>
donor molecule, donor type, donor heavy atom, donor atom, acceptor molecule, acceptor atom, score
      L1  H     8    22       P1 11819  0.93
      P1  H 11860 11888       L1     9  0.05
      P1  H 12542 12564       L1    17  0.05

> <Gold.PLP.Chemscore.Internal.Correction>
   9.000000E+99

