#       Name:                CT1002167954
#       Creating user name   hitesit
#       Creation time:       Sun Apr 16 22:52:06 2023


#       File generated by GOLD software.
#

@<TRIPOS>MOLECULE
CT1002167954|ligand_prepared|mol2|1|dock9
    29    30     1
SMALL
NO_CHARGES


@<TRIPOS>ATOM
      1 C1         114.3980 259.0940 350.9784 C.3            1 RES1               0.0000
      2 C2         114.5455 259.2204 349.4484 C.ar           1 RES1               0.0000
      3 C3         114.8434 257.6792 351.3364 C.2            1 RES1               0.0000
      4 C4         115.2669 260.1915 351.5828 C.2            1 RES1               0.0000
      5 C5         112.9511 259.2966 351.4855 C.3            1 RES1               0.0000
      6 C6         115.7432 258.8886 348.8222 C.ar           1 RES1               0.0000
      7 C7         113.4938 259.6639 348.6510 C.ar           1 RES1               0.0000
      8 N8         116.0542 257.5335 351.9468 N.am           1 RES1               0.0000
      9 O9         114.1605 256.7031 351.0518 O.2            1 RES1               0.0000
     10 N10        116.3583 259.8134 352.3201 N.am           1 RES1               0.0000
     11 O11        115.0256 261.3804 351.4134 O.2            1 RES1               0.0000
     12 C12        112.7718 258.9938 352.9648 C.3            1 RES1               0.0000
     13 C13        115.8836 258.9935 347.4483 C.ar           1 RES1               0.0000
     14 C14        113.6364 259.7683 347.2772 C.ar           1 RES1               0.0000
     15 C15        116.8088 258.5345 352.5038 C.2            1 RES1               0.0000
     16 C16        114.8304 259.4330 346.6749 C.ar           1 RES1               0.0000
     17 O17        117.8301 258.2778 353.1348 O.2            1 RES1               0.0000
     18 H18        112.6539 260.3360 351.2992 H              1 RES1               0.0000
     19 H19        112.2807 258.6476 350.9085 H              1 RES1               0.0000
     20 H20        116.5839 258.5432 349.4146 H              1 RES1               0.0000
     21 H21        112.5457 259.9343 349.1032 H              1 RES1               0.0000
     22 H22        116.4338 256.5932 351.9934 H              1 RES1               0.0000
     23 H23        116.8835 260.5539 352.7741 H              1 RES1               0.0000
     24 H24        111.7391 259.1518 353.2684 H              1 RES1               0.0000
     25 H25        113.0344 257.9604 353.1816 H              1 RES1               0.0000
     26 H26        113.4055 259.6387 353.5700 H              1 RES1               0.0000
     27 H27        116.8257 258.7296 346.9792 H              1 RES1               0.0000
     28 H28        112.8050 260.1153 346.6725 H              1 RES1               0.0000
     29 H29        114.9405 259.5147 345.5986 H              1 RES1               0.0000
@<TRIPOS>BOND
    1    1    2 1     
    2    1    3 1     
    3    1    4 1     
    4    1    5 1     
    5    2    6 ar    
    6    2    7 ar    
    7    3    8 1     
    8    3    9 2     
    9    4   10 1     
   10    4   11 2     
   11    5   12 1     
   12    5   18 1     
   13    5   19 1     
   14    6   13 ar    
   15    6   20 1     
   16    7   14 ar    
   17    7   21 1     
   18    8   15 1     
   19    8   22 1     
   20   10   15 1     
   21   10   23 1     
   22   12   24 1     
   23   12   25 1     
   24   12   26 1     
   25   13   16 ar    
   26   13   27 1     
   27   14   16 ar    
   28   14   28 1     
   29   15   17 2     
   30   16   29 1     
@<TRIPOS>SUBSTRUCTURE
      1 RES1           1
@<TRIPOS>SET
DONOR_HYDROGENS      STATIC     ATOMS    <user>   **** ""
2 22 23
ATOM$RED        STATIC     ATOMS    COLORGROUP SYSTEM
2 22 23
@<TRIPOS>COMMENT
> <Gold.Version>
2022.3.0

> <Gold.Id.Protein>
unknown|5adg_clean|pdb

> <Gold.Protein.RotatedTorsions>
[ 1111 1100 1101 1102 ] final -163.52 input   86.23 | X-H torsion
[ 1141 1124 1125 1126 ] final   97.22 input   63.27 | X-H torsion
[ 1161 1154 1155 1156 ] final  -44.96 input  128.69 | X-H torsion
[ 1181 1170 1171 1172 ] final  108.33 input   75.71 | X-H torsion
[ 1185 1175 1174 1171 ] final   88.05 input   60.03 | X-H torsion
[ 1205 1194 1195 1196 ] final  -74.53 input   99.83 | X-H torsion
[ 1241 1232 1233 1234 ] final -130.18 input  109.94 | X-H torsion
[ 13453 13433 13432 13430 ] final  173.34 input   60.02 | X-H torsion
[ 11610 11589 11588 11586 ] final  163.86 input   59.96 | X-H torsion
[ 11931 11915 11916 11917 ] final  -25.72 input  122.96 | X-H torsion
[ 13465 1067 1066 1065 ] final  -34.77 input   -0.00 | X-H torsion
[ 13468 1103 1102 1101 ] final   66.31 input   -0.00 | X-H torsion
[ 13471 1127 1126 1125 ] final   99.07 input   -0.00 | X-H torsion
[ 13476 1157 1156 1155 ] final -175.03 input    0.00 | X-H torsion
[ 13479 1173 1172 1171 ] final   13.16 input    0.00 | X-H torsion
[ 13484 1197 1196 1195 ] final  -73.29 input   -0.00 | X-H torsion

> <Gold.Protein.ActiveResidues>
 VAL308  THR329  CYS331  ILE335  CYS336  MET337  GLY338  SER339  ILE340  MET341 
 PRO343  SER418  ARG419  ARG423  PHE663  TYR671  CYS677  PRO678  ALA679  ASP680 
 TRP681  VAL682  TRP683  ILE684  VAL685  VAL695  GLN698  GLU699  MET700  LEU701 
 ASN702  TYR703  H4B760 

> <Gold.Protein.RotatedAtoms>
  110.5354  261.9089  344.9482 H   0  0  0  0  0  0  0  0  0  0  0  0  # atno 1111 bound_to 1100
  110.4241  260.2989  341.1234 H   0  0  0  0  0  0  0  0  0  0  0  0  # atno 1141 bound_to 1124
  110.7297  257.3273  340.0290 H   0  0  0  0  0  0  0  0  0  0  0  0  # atno 1161 bound_to 1154
  111.1351  254.8120  341.0441 H   0  0  0  0  0  0  0  0  0  0  0  0  # atno 1181 bound_to 1170
  108.7265  252.2225  341.5105 H   0  0  0  0  0  0  0  0  0  0  0  0  # atno 1185 bound_to 1175
  109.3943  253.3891  338.7218 H   0  0  0  0  0  0  0  0  0  0  0  0  # atno 1205 bound_to 1194
  108.2265  252.9639  336.2624 H   0  0  0  0  0  0  0  0  0  0  0  0  # atno 1241 bound_to 1232
  101.9091  254.4462  345.0722 H   0  0  0  0  0  0  0  0  0  0  0  0  # atno 11610 bound_to 11589
  118.5693  250.9450  337.9526 H   0  0  0  0  0  0  0  0  0  0  0  0  # atno 11931 bound_to 11915
  109.9979  250.4768  338.1766 H   0  0  0  0  0  0  0  0  0  0  0  0  # atno 13453 bound_to 13433
  109.0744  263.3122  342.7606 LP  0  0  0  0  0  0  0  0  0  0  0  0  # atno 13465 bound_to 1067
  110.7174  262.7640  342.7510 LP  0  0  0  0  0  0  0  0  0  0  0  0  # atno 13466 bound_to 1067
  109.3326  260.6522  344.7956 LP  0  0  0  0  0  0  0  0  0  0  0  0  # atno 13467 bound_to 1100
  108.6238  259.0209  343.9300 LP  0  0  0  0  0  0  0  0  0  0  0  0  # atno 13468 bound_to 1103
  109.5581  257.6456  343.4445 LP  0  0  0  0  0  0  0  0  0  0  0  0  # atno 13469 bound_to 1103
  110.5956  259.0991  342.3842 LP  0  0  0  0  0  0  0  0  0  0  0  0  # atno 13470 bound_to 1124
  110.3859  257.3708  337.9561 LP  0  0  0  0  0  0  0  0  0  0  0  0  # atno 13471 bound_to 1127
  109.5263  256.1520  338.8368 LP  0  0  0  0  0  0  0  0  0  0  0  0  # atno 13472 bound_to 1127
  111.8670  257.8330  341.2602 LP  0  0  0  0  0  0  0  0  0  0  0  0  # atno 13475 bound_to 1154
  112.4720  253.5641  338.2148 LP  0  0  0  0  0  0  0  0  0  0  0  0  # atno 13476 bound_to 1157
  113.6194  254.8572  338.1077 LP  0  0  0  0  0  0  0  0  0  0  0  0  # atno 13477 bound_to 1157
  111.5760  255.1024  339.3817 LP  0  0  0  0  0  0  0  0  0  0  0  0  # atno 13478 bound_to 1170
  109.1110  251.2326  339.2013 LP  0  0  0  0  0  0  0  0  0  0  0  0  # atno 13479 bound_to 1173
  108.1353  252.0108  338.0003 LP  0  0  0  0  0  0  0  0  0  0  0  0  # atno 13480 bound_to 1173
  109.4775  253.6453  341.7519 LP  0  0  0  0  0  0  0  0  0  0  0  0  # atno 13481 bound_to 1175
  109.7869  252.3781  342.7344 LP  0  0  0  0  0  0  0  0  0  0  0  0  # atno 13482 bound_to 1175
  109.3954  255.1336  338.7955 LP  0  0  0  0  0  0  0  0  0  0  0  0  # atno 13483 bound_to 1194
  109.2824  255.5285  335.3584 LP  0  0  0  0  0  0  0  0  0  0  0  0  # atno 13484 bound_to 1197
  110.1995  254.0703  335.5391 LP  0  0  0  0  0  0  0  0  0  0  0  0  # atno 13485 bound_to 1197
  106.7689  253.5023  335.4750 LP  0  0  0  0  0  0  0  0  0  0  0  0  # atno 13504 bound_to 1232
  109.5321  250.1388  336.6545 LP  0  0  0  0  0  0  0  0  0  0  0  0  # atno 13509 bound_to 13433
  111.0721  249.8604  337.1211 LP  0  0  0  0  0  0  0  0  0  0  0  0  # atno 13510 bound_to 13433

> <Gold.Score>
     Fitness  S(hb_ext) S(vdw_ext)  S(hb_int)    S(int)      intcor
     37.89       1.54      26.55       0.00      -0.15      -0.77

> <Gold.Goldscore.Fitness>
37.8948

> <Gold.Goldscore.Internal.Vdw>
-0.4510

> <Gold.Goldscore.Internal.Torsion>
-0.4613

> <Gold.Goldscore.External.Vdw>
26.5450

> <Gold.Goldscore.Internal.HBond>
0.0000

> <Gold.Goldscore.External.HBond>
1.5423

> <Gold.Goldscore.Internal.Correction>
-0.7653

> <Gold.Goldscore.Hbonds>
donor molecule, donor type, donor heavy atom, donor atom, acceptor molecule, acceptor atom, score
      P1  H 12548 12568       L1     9  0.77

> <Gold.Goldscore.Internal.Vdw.Weighted>
-0.4510

> <Gold.Goldscore.Internal.Torsion.Weighted>
-0.4613

> <Gold.Goldscore.External.Vdw.Weighted>
36.4994

> <Gold.Goldscore.Internal.HBond.Weighted>
0.0000

> <Gold.Goldscore.External.HBond.Weighted>
1.5423

> <Gold.Goldscore.Internal.Correction.Weighted>
-0.7653

> <Gold.Rescore>
     Score     S(PLP)   S(hbond)     S(cho)   S(metal)  DE(clash)   DE(tors)     intcor
     38.54     -36.11       1.00       0.00       0.00       0.00       0.29       ----

> <Gold.PLP.Fitness>
38.5352

> <Gold.PLP.PLP>
-36.1084

> <Gold.PLP.part.hbond>
-2.0000

> <Gold.PLP.part.metal>
0.0000

> <Gold.PLP.part.buried>
-7.4888

> <Gold.PLP.part.nonpolar>
-27.2696

> <Gold.PLP.part.repulsive>
0.5131

> <Gold.PLP.ligand.clash>
0.0000

> <Gold.PLP.ligand.torsion>
0.2866

> <Gold.PLP.Chemscore.Hbond>
1.0000

> <Gold.PLP.Chemscore.CHOScore>
0.0000

> <Gold.PLP.Chemscore.Metal>
0.0000

> <Gold.Chemscore.Hbonds>
donor molecule, donor type, donor heavy atom, donor atom, acceptor molecule, acceptor atom, score
      P1  H 12548 12568       L1     9  1.00

> <Gold.PLP.Chemscore.Internal.Correction>
   9.000000E+99

