#       Name:                CT1002167954
#       Creating user name   hitesit
#       Creation time:       Sun Apr 16 22:52:07 2023


#       File generated by GOLD software.
#

@<TRIPOS>MOLECULE
CT1002167954|ligand_prepared|mol2|1|dock10
    29    30     1
SMALL
NO_CHARGES


@<TRIPOS>ATOM
      1 C1         113.2030 255.1110 343.4406 C.3            1 RES1               0.0000
      2 C2         114.1130 255.1914 342.1979 C.ar           1 RES1               0.0000
      3 C3         114.0977 254.6814 344.5997 C.2            1 RES1               0.0000
      4 C4         112.5881 256.4959 343.6095 C.2            1 RES1               0.0000
      5 C5         112.0499 254.0894 343.3055 C.3            1 RES1               0.0000
      6 C6         114.7098 256.3946 341.8334 C.ar           1 RES1               0.0000
      7 C7         114.3668 254.0724 341.4093 C.ar           1 RES1               0.0000
      8 N8         114.4288 255.6261 345.5259 N.am           1 RES1               0.0000
      9 O9         114.5382 253.5413 344.6783 O.2            1 RES1               0.0000
     10 N10        112.9292 257.2185 344.7227 N.am           1 RES1               0.0000
     11 O11        111.8242 256.9746 342.7803 O.2            1 RES1               0.0000
     12 C12        110.9215 254.3033 344.3020 C.3            1 RES1               0.0000
     13 C13        115.5328 256.4757 340.7224 C.ar           1 RES1               0.0000
     14 C14        115.1900 254.1557 340.2985 C.ar           1 RES1               0.0000
     15 C15        113.8455 256.8589 345.6731 C.2            1 RES1               0.0000
     16 C16        115.7738 255.3564 339.9545 C.ar           1 RES1               0.0000
     17 O17        114.1391 257.5868 346.6170 O.2            1 RES1               0.0000
     18 H18        111.6404 254.1515 342.2897 H              1 RES1               0.0000
     19 H19        112.4552 253.0793 343.4425 H              1 RES1               0.0000
     20 H20        114.5298 257.2866 342.4241 H              1 RES1               0.0000
     21 H21        113.9174 253.1176 341.6603 H              1 RES1               0.0000
     22 H22        115.1796 255.3944 346.1686 H              1 RES1               0.0000
     23 H23        112.4561 258.1067 344.8552 H              1 RES1               0.0000
     24 H24        110.1389 253.5601 344.1640 H              1 RES1               0.0000
     25 H25        111.2883 254.2233 345.3232 H              1 RES1               0.0000
     26 H26        110.4784 255.2892 344.1773 H              1 RES1               0.0000
     27 H27        115.9888 257.4233 340.4551 H              1 RES1               0.0000
     28 H28        115.3764 253.2724 339.6967 H              1 RES1               0.0000
     29 H29        116.4189 255.4200 339.0844 H              1 RES1               0.0000
@<TRIPOS>BOND
    1    1    2 1     
    2    1    3 1     
    3    1    4 1     
    4    1    5 1     
    5    2    6 ar    
    6    2    7 ar    
    7    3    8 1     
    8    3    9 2     
    9    4   10 1     
   10    4   11 2     
   11    5   12 1     
   12    5   18 1     
   13    5   19 1     
   14    6   13 ar    
   15    6   20 1     
   16    7   14 ar    
   17    7   21 1     
   18    8   15 1     
   19    8   22 1     
   20   10   15 1     
   21   10   23 1     
   22   12   24 1     
   23   12   25 1     
   24   12   26 1     
   25   13   16 ar    
   26   13   27 1     
   27   14   16 ar    
   28   14   28 1     
   29   15   17 2     
   30   16   29 1     
@<TRIPOS>SUBSTRUCTURE
      1 RES1           1
@<TRIPOS>SET
DONOR_HYDROGENS      STATIC     ATOMS    <user>   **** ""
2 22 23
ATOM$RED        STATIC     ATOMS    COLORGROUP SYSTEM
2 22 23
@<TRIPOS>COMMENT
> <Gold.Version>
2022.3.0

> <Gold.Id.Protein>
unknown|5adg_clean|pdb

> <Gold.Protein.RotatedTorsions>
[ 1111 1100 1101 1102 ] final  -59.41 input   86.23 | X-H torsion
[ 1141 1124 1125 1126 ] final  131.27 input   63.27 | X-H torsion
[ 1161 1154 1155 1156 ] final  -81.42 input  128.69 | X-H torsion
[ 1181 1170 1171 1172 ] final -124.95 input   75.71 | X-H torsion
[ 1185 1175 1174 1171 ] final   54.73 input   60.03 | X-H torsion
[ 1205 1194 1195 1196 ] final  -94.81 input   99.83 | X-H torsion
[ 1241 1232 1233 1234 ] final  171.87 input  109.94 | X-H torsion
[ 13453 13433 13432 13430 ] final -117.74 input   60.02 | X-H torsion
[ 11610 11589 11588 11586 ] final -164.76 input   59.96 | X-H torsion
[ 11931 11915 11916 11917 ] final  164.96 input  122.96 | X-H torsion
[ 13465 1067 1066 1065 ] final -108.34 input   -0.00 | X-H torsion
[ 13468 1103 1102 1101 ] final   72.70 input   -0.00 | X-H torsion
[ 13471 1127 1126 1125 ] final   61.12 input   -0.00 | X-H torsion
[ 13476 1157 1156 1155 ] final -173.36 input    0.00 | X-H torsion
[ 13479 1173 1172 1171 ] final  154.23 input    0.00 | X-H torsion
[ 13484 1197 1196 1195 ] final  103.82 input   -0.00 | X-H torsion

> <Gold.Protein.ActiveResidues>
 VAL308  THR329  CYS331  ILE335  CYS336  MET337  GLY338  SER339  ILE340  MET341 
 PRO343  SER418  ARG419  ARG423  PHE663  TYR671  CYS677  PRO678  ALA679  ASP680 
 TRP681  VAL682  TRP683  ILE684  VAL685  VAL695  GLN698  GLU699  MET700  LEU701 
 ASN702  TYR703  H4B760 

> <Gold.Protein.RotatedAtoms>
  109.3955  261.5636  344.2313 H   0  0  0  0  0  0  0  0  0  0  0  0  # atno 1111 bound_to 1100
  110.0127  260.3476  341.4366 H   0  0  0  0  0  0  0  0  0  0  0  0  # atno 1141 bound_to 1124
  110.9967  257.7799  339.8442 H   0  0  0  0  0  0  0  0  0  0  0  0  # atno 1161 bound_to 1154
  112.1368  254.8030  339.8376 H   0  0  0  0  0  0  0  0  0  0  0  0  # atno 1181 bound_to 1170
  108.7283  252.7074  341.2812 H   0  0  0  0  0  0  0  0  0  0  0  0  # atno 1185 bound_to 1175
  109.2021  253.4338  338.9609 H   0  0  0  0  0  0  0  0  0  0  0  0  # atno 1205 bound_to 1194
  107.5805  252.4235  336.1822 H   0  0  0  0  0  0  0  0  0  0  0  0  # atno 1241 bound_to 1232
  101.9577  254.8104  345.4205 H   0  0  0  0  0  0  0  0  0  0  0  0  # atno 11610 bound_to 11589
  117.7085  252.0364  339.0456 H   0  0  0  0  0  0  0  0  0  0  0  0  # atno 11931 bound_to 11915
  110.9510  250.1236  337.8776 H   0  0  0  0  0  0  0  0  0  0  0  0  # atno 13453 bound_to 13433
  109.4355  262.4401  342.3311 LP  0  0  0  0  0  0  0  0  0  0  0  0  # atno 13465 bound_to 1067
  110.3563  263.6361  343.1806 LP  0  0  0  0  0  0  0  0  0  0  0  0  # atno 13466 bound_to 1067
  110.4512  260.9911  345.4991 LP  0  0  0  0  0  0  0  0  0  0  0  0  # atno 13467 bound_to 1100
  108.5715  259.0069  343.8500 LP  0  0  0  0  0  0  0  0  0  0  0  0  # atno 13468 bound_to 1103
  109.6103  257.6597  343.5245 LP  0  0  0  0  0  0  0  0  0  0  0  0  # atno 13469 bound_to 1103
  110.9954  259.0518  342.0799 LP  0  0  0  0  0  0  0  0  0  0  0  0  # atno 13470 bound_to 1124
  109.8589  257.5474  338.0463 LP  0  0  0  0  0  0  0  0  0  0  0  0  # atno 13471 bound_to 1127
  110.0533  255.9753  338.7467 LP  0  0  0  0  0  0  0  0  0  0  0  0  # atno 13472 bound_to 1127
  111.6089  257.3956  341.4388 LP  0  0  0  0  0  0  0  0  0  0  0  0  # atno 13475 bound_to 1154
  112.4577  253.5759  338.1978 LP  0  0  0  0  0  0  0  0  0  0  0  0  # atno 13476 bound_to 1157
  113.6337  254.8454  338.1247 LP  0  0  0  0  0  0  0  0  0  0  0  0  # atno 13477 bound_to 1157
  110.5860  255.1112  340.5740 LP  0  0  0  0  0  0  0  0  0  0  0  0  # atno 13478 bound_to 1170
  107.8760  252.0511  338.5144 LP  0  0  0  0  0  0  0  0  0  0  0  0  # atno 13479 bound_to 1173
  109.3702  251.1924  338.6873 LP  0  0  0  0  0  0  0  0  0  0  0  0  # atno 13480 bound_to 1173
  109.7912  253.5481  342.1812 LP  0  0  0  0  0  0  0  0  0  0  0  0  # atno 13481 bound_to 1175
  109.4714  251.9866  342.5362 LP  0  0  0  0  0  0  0  0  0  0  0  0  # atno 13482 bound_to 1175
  109.5843  255.0898  338.5604 LP  0  0  0  0  0  0  0  0  0  0  0  0  # atno 13483 bound_to 1194
  110.2107  254.0836  335.5791 LP  0  0  0  0  0  0  0  0  0  0  0  0  # atno 13484 bound_to 1197
  109.2712  255.5151  335.3184 LP  0  0  0  0  0  0  0  0  0  0  0  0  # atno 13485 bound_to 1197
  107.4116  254.0398  335.5549 LP  0  0  0  0  0  0  0  0  0  0  0  0  # atno 13504 bound_to 1232
  109.3810  250.4871  337.6516 LP  0  0  0  0  0  0  0  0  0  0  0  0  # atno 13509 bound_to 13433
  110.2635  249.8678  336.4251 LP  0  0  0  0  0  0  0  0  0  0  0  0  # atno 13510 bound_to 13433

> <Gold.Score>
     Fitness  S(hb_ext) S(vdw_ext)  S(hb_int)    S(int)      intcor
      1.84       0.65       1.64       0.00      -1.06      -0.77

> <Gold.Goldscore.Fitness>
1.8350

> <Gold.Goldscore.Internal.Vdw>
-0.9749

> <Gold.Goldscore.Internal.Torsion>
-0.8529

> <Gold.Goldscore.External.Vdw>
1.6357

> <Gold.Goldscore.Internal.HBond>
0.0000

> <Gold.Goldscore.External.HBond>
0.6483

> <Gold.Goldscore.Internal.Correction>
-0.7653

> <Gold.Goldscore.Hbonds>
donor molecule, donor type, donor heavy atom, donor atom, acceptor molecule, acceptor atom, score
      P1  H 11908 11922       L1     9  0.29
      L1  H     8    22       P1 11842  0.01

> <Gold.Goldscore.Internal.Vdw.Weighted>
-0.9749

> <Gold.Goldscore.Internal.Torsion.Weighted>
-0.8529

> <Gold.Goldscore.External.Vdw.Weighted>
2.2491

> <Gold.Goldscore.Internal.HBond.Weighted>
0.0000

> <Gold.Goldscore.External.HBond.Weighted>
0.6483

> <Gold.Goldscore.Internal.Correction.Weighted>
-0.7653

> <Gold.Rescore>
     Score     S(PLP)   S(hbond)     S(cho)   S(metal)  DE(clash)   DE(tors)     intcor
      1.85       3.06       2.48       0.00       0.00       0.98       0.78       ----

> <Gold.PLP.Fitness>
1.8469

> <Gold.PLP.PLP>
3.0569

> <Gold.PLP.part.hbond>
-4.7684

> <Gold.PLP.part.metal>
0.0000

> <Gold.PLP.part.buried>
24.4441

> <Gold.PLP.part.nonpolar>
-22.9793

> <Gold.PLP.part.repulsive>
3.5064

> <Gold.PLP.ligand.clash>
0.9752

> <Gold.PLP.ligand.torsion>
0.7805

> <Gold.PLP.Chemscore.Hbond>
2.4800

> <Gold.PLP.Chemscore.CHOScore>
0.0000

> <Gold.PLP.Chemscore.Metal>
0.0000

> <Gold.Chemscore.Hbonds>
donor molecule, donor type, donor heavy atom, donor atom, acceptor molecule, acceptor atom, score
      L1  H     8    22       P1 11842  0.04
      P1  H 11908 11922       L1     9  1.00

> <Gold.PLP.Chemscore.Internal.Correction>
   9.000000E+99

