#       Name:                CT1002167954
#       Creating user name   hitesit
#       Creation time:       Sun Apr 16 22:52:02 2023


#       File generated by GOLD software.
#

@<TRIPOS>MOLECULE
CT1002167954|ligand_prepared|mol2|1|dock4
    29    30     1
SMALL
NO_CHARGES


@<TRIPOS>ATOM
      1 C1         113.5345 254.9857 343.8527 C.3            1 RES1               0.0000
      2 C2         114.5522 254.9106 342.6962 C.ar           1 RES1               0.0000
      3 C3         114.2927 254.5915 345.1169 C.2            1 RES1               0.0000
      4 C4         113.0067 256.4161 343.8644 C.2            1 RES1               0.0000
      5 C5         112.3281 254.0326 343.6863 C.3            1 RES1               0.0000
      6 C6         115.9150 255.0493 342.9414 C.ar           1 RES1               0.0000
      7 C7         114.1442 254.7009 341.3816 C.ar           1 RES1               0.0000
      8 N8         114.6083 255.5824 345.9992 N.am           1 RES1               0.0000
      9 O9         114.6431 253.4351 345.3174 O.2            1 RES1               0.0000
     10 N10        113.3003 257.2000 344.9493 N.am           1 RES1               0.0000
     11 O11        112.3533 256.8765 342.9363 O.2            1 RES1               0.0000
     12 C12        111.0482 254.7328 343.2575 C.3            1 RES1               0.0000
     13 C13        116.8369 254.9779 341.9103 C.ar           1 RES1               0.0000
     14 C14        115.0678 254.6301 340.3518 C.ar           1 RES1               0.0000
     15 C15        114.1030 256.8577 346.0031 C.2            1 RES1               0.0000
     16 C16        116.4141 254.7678 340.6150 C.ar           1 RES1               0.0000
     17 O17        114.3645 257.6368 346.9152 O.2            1 RES1               0.0000
     18 H18        112.5808 253.2702 342.9391 H              1 RES1               0.0000
     19 H19        112.1481 253.5209 344.6398 H              1 RES1               0.0000
     20 H20        116.2663 255.2176 343.9540 H              1 RES1               0.0000
     21 H21        113.0900 254.5908 341.1509 H              1 RES1               0.0000
     22 H22        115.2823 255.3541 346.7230 H              1 RES1               0.0000
     23 H23        112.8815 258.1243 344.9735 H              1 RES1               0.0000
     24 H24        110.2336 254.0188 343.1555 H              1 RES1               0.0000
     25 H25        110.7535 255.4807 343.9906 H              1 RES1               0.0000
     26 H26        111.1836 255.2315 342.3000 H              1 RES1               0.0000
     27 H27        117.8952 255.0883 342.1225 H              1 RES1               0.0000
     28 H28        114.7305 254.4653 339.3339 H              1 RES1               0.0000
     29 H29        117.1365 254.7116 339.8075 H              1 RES1               0.0000
@<TRIPOS>BOND
    1    1    2 1     
    2    1    3 1     
    3    1    4 1     
    4    1    5 1     
    5    2    6 ar    
    6    2    7 ar    
    7    3    8 1     
    8    3    9 2     
    9    4   10 1     
   10    4   11 2     
   11    5   12 1     
   12    5   18 1     
   13    5   19 1     
   14    6   13 ar    
   15    6   20 1     
   16    7   14 ar    
   17    7   21 1     
   18    8   15 1     
   19    8   22 1     
   20   10   15 1     
   21   10   23 1     
   22   12   24 1     
   23   12   25 1     
   24   12   26 1     
   25   13   16 ar    
   26   13   27 1     
   27   14   16 ar    
   28   14   28 1     
   29   15   17 2     
   30   16   29 1     
@<TRIPOS>SUBSTRUCTURE
      1 RES1           1
@<TRIPOS>SET
DONOR_HYDROGENS      STATIC     ATOMS    <user>   **** ""
2 22 23
ATOM$RED        STATIC     ATOMS    COLORGROUP SYSTEM
2 22 23
@<TRIPOS>COMMENT
> <Gold.Version>
2022.3.0

> <Gold.Id.Protein>
unknown|5adg_clean|pdb

> <Gold.Protein.RotatedTorsions>
[ 1111 1100 1101 1102 ] final   44.04 input   86.23 | X-H torsion
[ 1141 1124 1125 1126 ] final -178.61 input   63.27 | X-H torsion
[ 1161 1154 1155 1156 ] final  156.81 input  128.69 | X-H torsion
[ 1181 1170 1171 1172 ] final   -8.67 input   75.71 | X-H torsion
[ 1185 1175 1174 1171 ] final   79.71 input   60.03 | X-H torsion
[ 1205 1194 1195 1196 ] final  172.95 input   99.83 | X-H torsion
[ 1241 1232 1233 1234 ] final  143.69 input  109.94 | X-H torsion
[ 13453 13433 13432 13430 ] final -164.98 input   60.02 | X-H torsion
[ 11610 11589 11588 11586 ] final  -70.82 input   59.96 | X-H torsion
[ 11931 11915 11916 11917 ] final   75.15 input  122.96 | X-H torsion
[ 13465 1067 1066 1065 ] final   98.44 input   -0.00 | X-H torsion
[ 13468 1103 1102 1101 ] final  -73.13 input   -0.00 | X-H torsion
[ 13471 1127 1126 1125 ] final  -18.28 input   -0.00 | X-H torsion
[ 13476 1157 1156 1155 ] final   39.37 input    0.00 | X-H torsion
[ 13479 1173 1172 1171 ] final -116.72 input    0.00 | X-H torsion
[ 13484 1197 1196 1195 ] final  -66.09 input   -0.00 | X-H torsion

> <Gold.Protein.ActiveResidues>
 VAL308  THR329  CYS331  ILE335  CYS336  MET337  GLY338  SER339  ILE340  MET341 
 PRO343  SER418  ARG419  ARG423  PHE663  TYR671  CYS677  PRO678  ALA679  ASP680 
 TRP681  VAL682  TRP683  ILE684  VAL685  VAL695  GLN698  GLU699  MET700  LEU701 
 ASN702  TYR703  H4B760 

> <Gold.Protein.RotatedAtoms>
  109.5723  260.5017  345.1008 H   0  0  0  0  0  0  0  0  0  0  0  0  # atno 1111 bound_to 1100
  109.7425  260.0211  342.0572 H   0  0  0  0  0  0  0  0  0  0  0  0  # atno 1141 bound_to 1124
  111.9552  258.0626  341.0362 H   0  0  0  0  0  0  0  0  0  0  0  0  # atno 1161 bound_to 1154
  110.7441  255.3121  339.6895 H   0  0  0  0  0  0  0  0  0  0  0  0  # atno 1181 bound_to 1170
  108.7072  252.3332  341.4340 H   0  0  0  0  0  0  0  0  0  0  0  0  # atno 1185 bound_to 1175
  108.8852  254.5794  339.4064 H   0  0  0  0  0  0  0  0  0  0  0  0  # atno 1205 bound_to 1194
  107.1870  252.4315  336.0215 H   0  0  0  0  0  0  0  0  0  0  0  0  # atno 1241 bound_to 1232
  102.7239  254.5309  346.5196 H   0  0  0  0  0  0  0  0  0  0  0  0  # atno 11610 bound_to 11589
  117.6965  251.9876  337.7928 H   0  0  0  0  0  0  0  0  0  0  0  0  # atno 11931 bound_to 11915
  110.3382  250.3953  338.2148 H   0  0  0  0  0  0  0  0  0  0  0  0  # atno 13453 bound_to 13433
  110.6316  263.3638  343.0763 LP  0  0  0  0  0  0  0  0  0  0  0  0  # atno 13465 bound_to 1067
  109.1603  262.7124  342.4353 LP  0  0  0  0  0  0  0  0  0  0  0  0  # atno 13466 bound_to 1067
  110.2777  262.0331  344.6458 LP  0  0  0  0  0  0  0  0  0  0  0  0  # atno 13467 bound_to 1100
  109.7678  257.8678  343.9614 LP  0  0  0  0  0  0  0  0  0  0  0  0  # atno 13468 bound_to 1103
  108.4140  258.7987  343.4131 LP  0  0  0  0  0  0  0  0  0  0  0  0  # atno 13469 bound_to 1103
  111.2580  259.3690  341.4769 LP  0  0  0  0  0  0  0  0  0  0  0  0  # atno 13470 bound_to 1124
  109.1286  256.9227  338.5945 LP  0  0  0  0  0  0  0  0  0  0  0  0  # atno 13471 bound_to 1127
  110.7836  256.6000  338.1984 LP  0  0  0  0  0  0  0  0  0  0  0  0  # atno 13472 bound_to 1127
  110.6826  257.1224  340.2868 LP  0  0  0  0  0  0  0  0  0  0  0  0  # atno 13475 bound_to 1154
  113.8023  254.5201  338.4472 LP  0  0  0  0  0  0  0  0  0  0  0  0  # atno 13476 bound_to 1157
  112.2891  253.9012  337.8753 LP  0  0  0  0  0  0  0  0  0  0  0  0  # atno 13477 bound_to 1157
  111.9624  254.6082  340.7204 LP  0  0  0  0  0  0  0  0  0  0  0  0  # atno 13478 bound_to 1170
  108.7592  251.7165  337.7508 LP  0  0  0  0  0  0  0  0  0  0  0  0  # atno 13479 bound_to 1173
  108.4870  251.5270  339.4508 LP  0  0  0  0  0  0  0  0  0  0  0  0  # atno 13480 bound_to 1173
  109.5652  253.6491  341.8571 LP  0  0  0  0  0  0  0  0  0  0  0  0  # atno 13481 bound_to 1175
  109.7187  252.2627  342.7063 LP  0  0  0  0  0  0  0  0  0  0  0  0  # atno 13482 bound_to 1175
  109.8958  253.9637  338.1225 LP  0  0  0  0  0  0  0  0  0  0  0  0  # atno 13483 bound_to 1194
  109.3154  255.5536  335.4589 LP  0  0  0  0  0  0  0  0  0  0  0  0  # atno 13484 bound_to 1197
  110.1665  254.0452  335.4386 LP  0  0  0  0  0  0  0  0  0  0  0  0  # atno 13485 bound_to 1197
  107.8030  254.0318  335.7147 LP  0  0  0  0  0  0  0  0  0  0  0  0  # atno 13504 bound_to 1232
  109.3502  250.2728  336.9277 LP  0  0  0  0  0  0  0  0  0  0  0  0  # atno 13509 bound_to 13433
  110.9113  249.8086  336.8094 LP  0  0  0  0  0  0  0  0  0  0  0  0  # atno 13510 bound_to 13433

> <Gold.Score>
     Fitness  S(hb_ext) S(vdw_ext)  S(hb_int)    S(int)      intcor
    -25.07       1.71     -11.34       0.00     -11.20      -0.78

> <Gold.Goldscore.Fitness>
-25.0722

> <Gold.Goldscore.Internal.Vdw>
-9.6379

> <Gold.Goldscore.Internal.Torsion>
-2.3427

> <Gold.Goldscore.External.Vdw>
-11.3354

> <Gold.Goldscore.Internal.HBond>
0.0000

> <Gold.Goldscore.External.HBond>
1.7127

> <Gold.Goldscore.Internal.Correction>
-0.7819

> <Gold.Goldscore.Hbonds>
donor molecule, donor type, donor heavy atom, donor atom, acceptor molecule, acceptor atom, score
      P1  H 11908 11922       L1     9  0.79
      P1  H 12548 12569       L1    17  0.07

> <Gold.Goldscore.Internal.Vdw.Weighted>
-9.6379

> <Gold.Goldscore.Internal.Torsion.Weighted>
-2.3427

> <Gold.Goldscore.External.Vdw.Weighted>
-15.5862

> <Gold.Goldscore.Internal.HBond.Weighted>
0.0000

> <Gold.Goldscore.External.HBond.Weighted>
1.7127

> <Gold.Goldscore.Internal.Correction.Weighted>
-0.7819

> <Gold.Rescore>
     Score     S(PLP)   S(hbond)     S(cho)   S(metal)  DE(clash)   DE(tors)     intcor
      5.53       2.62       3.32       0.00       0.00       1.42       0.20       ----

> <Gold.PLP.Fitness>
5.5275

> <Gold.PLP.PLP>
2.6190

> <Gold.PLP.part.hbond>
-4.4928

> <Gold.PLP.part.metal>
0.0000

> <Gold.PLP.part.buried>
24.3494

> <Gold.PLP.part.nonpolar>
-21.8420

> <Gold.PLP.part.repulsive>
3.0634

> <Gold.PLP.ligand.clash>
1.4158

> <Gold.PLP.ligand.torsion>
0.1989

> <Gold.PLP.Chemscore.Hbond>
3.3200

> <Gold.PLP.Chemscore.CHOScore>
0.0000

> <Gold.PLP.Chemscore.Metal>
0.0000

> <Gold.Chemscore.Hbonds>
donor molecule, donor type, donor heavy atom, donor atom, acceptor molecule, acceptor atom, score
      P1  H 11908 11922       L1     9  1.00

> <Gold.PLP.Chemscore.Internal.Correction>
   9.000000E+99

