#       Name:                CT1002167954
#       Creating user name   hitesit
#       Creation time:       Sun Apr 16 22:52:00 2023


#       File generated by GOLD software.
#

@<TRIPOS>MOLECULE
CT1002167954|ligand_prepared|mol2|1|dock2
    29    30     1
SMALL
NO_CHARGES


@<TRIPOS>ATOM
      1 C1         113.8546 255.0688 344.2149 C.3            1 RES1               0.0000
      2 C2         114.5604 256.0691 345.1528 C.ar           1 RES1               0.0000
      3 C3         113.0083 254.1671 345.1088 C.2            1 RES1               0.0000
      4 C4         113.0450 255.9054 343.2304 C.2            1 RES1               0.0000
      5 C5         114.8263 254.1819 343.4020 C.3            1 RES1               0.0000
      6 C6         114.0166 257.3292 345.3834 C.ar           1 RES1               0.0000
      7 C7         115.7525 255.7458 345.7956 C.ar           1 RES1               0.0000
      8 N8         111.6577 254.3559 345.0990 N.am           1 RES1               0.0000
      9 O9         113.5215 253.3299 345.8409 O.2            1 RES1               0.0000
     10 N10        111.6788 255.8100 343.2783 N.am           1 RES1               0.0000
     11 O11        113.5772 256.6590 342.4247 O.2            1 RES1               0.0000
     12 C12        114.2659 253.7247 342.0644 C.3            1 RES1               0.0000
     13 C13        114.6402 258.2323 346.2283 C.ar           1 RES1               0.0000
     14 C14        116.3746 256.6506 346.6399 C.ar           1 RES1               0.0000
     15 C15        110.9476 255.0964 344.1885 C.2            1 RES1               0.0000
     16 C16        115.8192 257.8936 346.8574 C.ar           1 RES1               0.0000
     17 O17        109.7200 255.1035 344.2015 O.2            1 RES1               0.0000
     18 H18        115.7516 254.7435 343.2237 H              1 RES1               0.0000
     19 H19        115.0806 253.2975 343.9991 H              1 RES1               0.0000
     20 H20        113.0906 257.6144 344.8952 H              1 RES1               0.0000
     21 H21        116.2082 254.7741 345.6386 H              1 RES1               0.0000
     22 H22        111.1265 253.9047 345.8370 H              1 RES1               0.0000
     23 H23        111.1588 256.3178 342.5698 H              1 RES1               0.0000
     24 H24        114.9875 253.1060 341.5351 H              1 RES1               0.0000
     25 H25        113.3584 253.1414 342.2055 H              1 RES1               0.0000
     26 H26        114.0254 254.5789 341.4348 H              1 RES1               0.0000
     27 H27        114.1997 259.2098 346.3950 H              1 RES1               0.0000
     28 H28        117.3027 256.3800 347.1324 H              1 RES1               0.0000
     29 H29        116.3073 258.6011 347.5195 H              1 RES1               0.0000
@<TRIPOS>BOND
    1    1    2 1     
    2    1    3 1     
    3    1    4 1     
    4    1    5 1     
    5    2    6 ar    
    6    2    7 ar    
    7    3    8 1     
    8    3    9 2     
    9    4   10 1     
   10    4   11 2     
   11    5   12 1     
   12    5   18 1     
   13    5   19 1     
   14    6   13 ar    
   15    6   20 1     
   16    7   14 ar    
   17    7   21 1     
   18    8   15 1     
   19    8   22 1     
   20   10   15 1     
   21   10   23 1     
   22   12   24 1     
   23   12   25 1     
   24   12   26 1     
   25   13   16 ar    
   26   13   27 1     
   27   14   16 ar    
   28   14   28 1     
   29   15   17 2     
   30   16   29 1     
@<TRIPOS>SUBSTRUCTURE
      1 RES1           1
@<TRIPOS>SET
DONOR_HYDROGENS      STATIC     ATOMS    <user>   **** ""
2 22 23
ATOM$RED        STATIC     ATOMS    COLORGROUP SYSTEM
2 22 23
@<TRIPOS>COMMENT
> <Gold.Version>
2022.3.0

> <Gold.Id.Protein>
unknown|5adg_clean|pdb

> <Gold.Protein.RotatedTorsions>
[ 1111 1100 1101 1102 ] final  166.28 input   86.23 | X-H torsion
[ 1141 1124 1125 1126 ] final -124.95 input   63.27 | X-H torsion
[ 1161 1154 1155 1156 ] final  142.78 input  128.69 | X-H torsion
[ 1181 1170 1171 1172 ] final   18.76 input   75.71 | X-H torsion
[ 1185 1175 1174 1171 ] final -119.54 input   60.03 | X-H torsion
[ 1205 1194 1195 1196 ] final  -74.30 input   99.83 | X-H torsion
[ 1241 1232 1233 1234 ] final    3.71 input  109.94 | X-H torsion
[ 13453 13433 13432 13430 ] final  167.61 input   60.02 | X-H torsion
[ 11610 11589 11588 11586 ] final  -22.70 input   59.96 | X-H torsion
[ 11931 11915 11916 11917 ] final   67.99 input  122.96 | X-H torsion
[ 13465 1067 1066 1065 ] final  103.75 input   -0.00 | X-H torsion
[ 13468 1103 1102 1101 ] final -173.99 input   -0.00 | X-H torsion
[ 13471 1127 1126 1125 ] final   95.76 input   -0.00 | X-H torsion
[ 13476 1157 1156 1155 ] final -120.21 input    0.00 | X-H torsion
[ 13479 1173 1172 1171 ] final  116.59 input    0.00 | X-H torsion
[ 13484 1197 1196 1195 ] final -169.94 input   -0.00 | X-H torsion

> <Gold.Protein.ActiveResidues>
 VAL308  THR329  CYS331  ILE335  CYS336  MET337  GLY338  SER339  ILE340  MET341 
 PRO343  SER418  ARG419  ARG423  PHE663  TYR671  CYS677  PRO678  ALA679  ASP680 
 TRP681  VAL682  TRP683  ILE684  VAL685  VAL695  GLN698  GLU699  MET700  LEU701 
 ASN702  TYR703  H4B760 

> <Gold.Protein.RotatedAtoms>
  110.6522  261.5931  345.2604 H   0  0  0  0  0  0  0  0  0  0  0  0  # atno 1111 bound_to 1100
  110.0587  259.4155  342.4746 H   0  0  0  0  0  0  0  0  0  0  0  0  # atno 1141 bound_to 1124
  111.9311  257.9178  341.1967 H   0  0  0  0  0  0  0  0  0  0  0  0  # atno 1161 bound_to 1154
  110.5533  255.2762  340.0572 H   0  0  0  0  0  0  0  0  0  0  0  0  # atno 1181 bound_to 1170
  109.9469  252.8754  342.6884 H   0  0  0  0  0  0  0  0  0  0  0  0  # atno 1185 bound_to 1175
  109.3965  253.3893  338.7190 H   0  0  0  0  0  0  0  0  0  0  0  0  # atno 1205 bound_to 1194
  107.2390  253.9945  335.5242 H   0  0  0  0  0  0  0  0  0  0  0  0  # atno 1241 bound_to 1232
  102.9938  253.8194  346.4596 H   0  0  0  0  0  0  0  0  0  0  0  0  # atno 11610 bound_to 11589
  117.7489  251.9210  337.7214 H   0  0  0  0  0  0  0  0  0  0  0  0  # atno 11931 bound_to 11915
  109.9107  250.4912  338.1456 H   0  0  0  0  0  0  0  0  0  0  0  0  # atno 13453 bound_to 13433
  110.6688  263.2993  343.0465 LP  0  0  0  0  0  0  0  0  0  0  0  0  # atno 13465 bound_to 1067
  109.1231  262.7769  342.4652 LP  0  0  0  0  0  0  0  0  0  0  0  0  # atno 13466 bound_to 1067
  109.2180  260.9621  344.4893 LP  0  0  0  0  0  0  0  0  0  0  0  0  # atno 13467 bound_to 1100
  108.8922  257.9166  342.9545 LP  0  0  0  0  0  0  0  0  0  0  0  0  # atno 13468 bound_to 1103
  109.2896  258.7499  344.4200 LP  0  0  0  0  0  0  0  0  0  0  0  0  # atno 13469 bound_to 1103
  110.9507  259.9575  341.0713 LP  0  0  0  0  0  0  0  0  0  0  0  0  # atno 13470 bound_to 1124
  110.3443  257.3984  337.9566 LP  0  0  0  0  0  0  0  0  0  0  0  0  # atno 13471 bound_to 1127
  109.5679  256.1244  338.8364 LP  0  0  0  0  0  0  0  0  0  0  0  0  # atno 13472 bound_to 1127
  110.7059  257.2624  340.1316 LP  0  0  0  0  0  0  0  0  0  0  0  0  # atno 13475 bound_to 1154
  112.3053  254.1621  337.7146 LP  0  0  0  0  0  0  0  0  0  0  0  0  # atno 13476 bound_to 1157
  113.7861  254.2592  338.6079 LP  0  0  0  0  0  0  0  0  0  0  0  0  # atno 13477 bound_to 1157
  112.1509  254.6436  340.3569 LP  0  0  0  0  0  0  0  0  0  0  0  0  # atno 13478 bound_to 1170
  107.9408  251.9082  339.0507 LP  0  0  0  0  0  0  0  0  0  0  0  0  # atno 13479 bound_to 1173
  109.3054  251.3353  338.1509 LP  0  0  0  0  0  0  0  0  0  0  0  0  # atno 13480 bound_to 1173
  108.9107  251.9093  341.8886 LP  0  0  0  0  0  0  0  0  0  0  0  0  # atno 13481 bound_to 1175
  109.1241  253.4561  341.4107 LP  0  0  0  0  0  0  0  0  0  0  0  0  # atno 13482 bound_to 1175
  109.3932  255.1335  338.7982 LP  0  0  0  0  0  0  0  0  0  0  0  0  # atno 13483 bound_to 1194
  109.5612  254.4704  334.6681 LP  0  0  0  0  0  0  0  0  0  0  0  0  # atno 13484 bound_to 1197
  109.9208  255.1283  336.2294 LP  0  0  0  0  0  0  0  0  0  0  0  0  # atno 13485 bound_to 1197
  107.7513  252.4770  336.2094 LP  0  0  0  0  0  0  0  0  0  0  0  0  # atno 13504 bound_to 1232
  109.5975  250.1031  336.5966 LP  0  0  0  0  0  0  0  0  0  0  0  0  # atno 13509 bound_to 13433
  111.0946  249.8817  337.2102 LP  0  0  0  0  0  0  0  0  0  0  0  0  # atno 13510 bound_to 13433

> <Gold.Score>
     Fitness  S(hb_ext) S(vdw_ext)  S(hb_int)    S(int)      intcor
     15.57       2.14      12.27       0.00      -3.44      -0.78

> <Gold.Goldscore.Fitness>
15.5708

> <Gold.Goldscore.Internal.Vdw>
-2.7776

> <Gold.Goldscore.Internal.Torsion>
-1.4455

> <Gold.Goldscore.External.Vdw>
12.2701

> <Gold.Goldscore.Internal.HBond>
0.0000

> <Gold.Goldscore.External.HBond>
2.1407

> <Gold.Goldscore.Internal.Correction>
-0.7819

> <Gold.Goldscore.Hbonds>
donor molecule, donor type, donor heavy atom, donor atom, acceptor molecule, acceptor atom, score
      P1  H 11908 11922       L1     9  0.17
      L1  H     8    22       P1 11819  0.90

> <Gold.Goldscore.Internal.Vdw.Weighted>
-2.7776

> <Gold.Goldscore.Internal.Torsion.Weighted>
-1.4455

> <Gold.Goldscore.External.Vdw.Weighted>
16.8714

> <Gold.Goldscore.Internal.HBond.Weighted>
0.0000

> <Gold.Goldscore.External.HBond.Weighted>
2.1407

> <Gold.Goldscore.Internal.Correction.Weighted>
-0.7819

> <Gold.Rescore>
     Score     S(PLP)   S(hbond)     S(cho)   S(metal)  DE(clash)   DE(tors)     intcor
    -16.71      19.68       2.05       0.00       0.00       2.13       0.53       ----

> <Gold.PLP.Fitness>
-16.7148

> <Gold.PLP.PLP>
19.6772

> <Gold.PLP.part.hbond>
-5.6215

> <Gold.PLP.part.metal>
0.0000

> <Gold.PLP.part.buried>
35.6436

> <Gold.PLP.part.nonpolar>
-23.0572

> <Gold.PLP.part.repulsive>
11.0560

> <Gold.PLP.ligand.clash>
2.1255

> <Gold.PLP.ligand.torsion>
0.5282

> <Gold.PLP.Chemscore.Hbond>
2.0481

> <Gold.PLP.Chemscore.CHOScore>
0.0000

> <Gold.PLP.Chemscore.Metal>
0.0000

> <Gold.Chemscore.Hbonds>
donor molecule, donor type, donor heavy atom, donor atom, acceptor molecule, acceptor atom, score
      L1  H     8    22       P1 11819  1.00
      P1  H  1154  1161       L1    11  0.02
      P1  H 11908 11922       L1     9  0.69

> <Gold.PLP.Chemscore.Internal.Correction>
   9.000000E+99

