#       Name:                CT1002167954
#       Creating user name   hitesit
#       Creation time:       Sun Apr 16 22:51:59 2023


#       File generated by GOLD software.
#

@<TRIPOS>MOLECULE
CT1002167954|ligand_prepared|mol2|1|dock1
    29    30     1
SMALL
NO_CHARGES


@<TRIPOS>ATOM
      1 C1         113.8908 259.8444 351.0208 C.3            1 RES1               0.0000
      2 C2         114.7325 259.4911 349.7777 C.ar           1 RES1               0.0000
      3 C3         114.6447 260.9543 351.7474 C.2            1 RES1               0.0000
      4 C4         112.5185 260.2603 350.5028 C.2            1 RES1               0.0000
      5 C5         113.6942 258.6626 351.9987 C.3            1 RES1               0.0000
      6 C6         115.9641 258.8574 349.9125 C.ar           1 RES1               0.0000
      7 C7         114.2902 259.7897 348.4917 C.ar           1 RES1               0.0000
      8 N8         114.1388 262.2184 351.6681 N.am           1 RES1               0.0000
      9 O9         115.6886 260.7307 352.3477 O.2            1 RES1               0.0000
     10 N10        112.1302 261.5616 350.6864 N.am           1 RES1               0.0000
     11 O11        111.7768 259.4771 349.9224 O.2            1 RES1               0.0000
     12 C12        112.7184 258.9564 353.1273 C.3            1 RES1               0.0000
     13 C13        116.7247 258.5312 348.8019 C.ar           1 RES1               0.0000
     14 C14        115.0525 259.4628 347.3824 C.ar           1 RES1               0.0000
     15 C15        112.8907 262.5670 351.2183 C.2            1 RES1               0.0000
     16 C16        116.2693 258.8333 347.5362 C.ar           1 RES1               0.0000
     17 O17        112.4915 263.7251 351.3004 O.2            1 RES1               0.0000
     18 H18        113.3310 257.7944 351.4350 H              1 RES1               0.0000
     19 H19        114.6663 258.3978 352.4326 H              1 RES1               0.0000
     20 H20        116.3400 258.6140 350.9007 H              1 RES1               0.0000
     21 H21        113.3365 260.2857 348.3467 H              1 RES1               0.0000
     22 H22        114.7446 262.9743 351.9713 H              1 RES1               0.0000
     23 H23        111.1867 261.8031 350.4002 H              1 RES1               0.0000
     24 H24        112.6172 258.0948 353.7838 H              1 RES1               0.0000
     25 H25        113.0614 259.7989 353.7243 H              1 RES1               0.0000
     26 H26        111.7339 259.1991 352.7326 H              1 RES1               0.0000
     27 H27        117.6823 258.0370 348.9285 H              1 RES1               0.0000
     28 H28        114.6904 259.7030 346.3882 H              1 RES1               0.0000
     29 H29        116.8652 258.5773 346.6664 H              1 RES1               0.0000
@<TRIPOS>BOND
    1    1    2 1     
    2    1    3 1     
    3    1    4 1     
    4    1    5 1     
    5    2    6 ar    
    6    2    7 ar    
    7    3    8 1     
    8    3    9 2     
    9    4   10 1     
   10    4   11 2     
   11    5   12 1     
   12    5   18 1     
   13    5   19 1     
   14    6   13 ar    
   15    6   20 1     
   16    7   14 ar    
   17    7   21 1     
   18    8   15 1     
   19    8   22 1     
   20   10   15 1     
   21   10   23 1     
   22   12   24 1     
   23   12   25 1     
   24   12   26 1     
   25   13   16 ar    
   26   13   27 1     
   27   14   16 ar    
   28   14   28 1     
   29   15   17 2     
   30   16   29 1     
@<TRIPOS>SUBSTRUCTURE
      1 RES1           1
@<TRIPOS>SET
DONOR_HYDROGENS      STATIC     ATOMS    <user>   **** ""
2 22 23
ATOM$RED        STATIC     ATOMS    COLORGROUP SYSTEM
2 22 23
@<TRIPOS>COMMENT
> <Gold.Version>
2022.3.0

> <Gold.Id.Protein>
unknown|5adg_clean|pdb

> <Gold.Protein.RotatedTorsions>
[ 1111 1100 1101 1102 ] final   20.48 input   86.23 | X-H torsion
[ 1141 1124 1125 1126 ] final -126.66 input   63.27 | X-H torsion
[ 1161 1154 1155 1156 ] final  103.29 input  128.69 | X-H torsion
[ 1181 1170 1171 1172 ] final   28.50 input   75.71 | X-H torsion
[ 1185 1175 1174 1171 ] final -132.94 input   60.03 | X-H torsion
[ 1205 1194 1195 1196 ] final  -38.59 input   99.83 | X-H torsion
[ 1241 1232 1233 1234 ] final  -12.79 input  109.94 | X-H torsion
[ 13453 13433 13432 13430 ] final  -85.46 input   60.02 | X-H torsion
[ 11610 11589 11588 11586 ] final  -81.81 input   59.96 | X-H torsion
[ 11931 11915 11916 11917 ] final  176.88 input  122.96 | X-H torsion
[ 13465 1067 1066 1065 ] final   63.00 input   -0.00 | X-H torsion
[ 13468 1103 1102 1101 ] final  170.44 input   -0.00 | X-H torsion
[ 13471 1127 1126 1125 ] final   -1.30 input   -0.00 | X-H torsion
[ 13476 1157 1156 1155 ] final   -9.83 input    0.00 | X-H torsion
[ 13479 1173 1172 1171 ] final   86.01 input    0.00 | X-H torsion
[ 13484 1197 1196 1195 ] final   32.64 input   -0.00 | X-H torsion

> <Gold.Protein.ActiveResidues>
 VAL308  THR329  CYS331  ILE335  CYS336  MET337  GLY338  SER339  ILE340  MET341 
 PRO343  SER418  ARG419  ARG423  PHE663  TYR671  CYS677  PRO678  ALA679  ASP680 
 TRP681  VAL682  TRP683  ILE684  VAL685  VAL695  GLN698  GLU699  MET700  LEU701 
 ASN702  TYR703  H4B760 

> <Gold.Protein.RotatedAtoms>
  109.3493  260.6109  344.8404 H   0  0  0  0  0  0  0  0  0  0  0  0  # atno 1111 bound_to 1100
  110.0404  259.4340  342.4696 H   0  0  0  0  0  0  0  0  0  0  0  0  # atno 1141 bound_to 1124
  111.6794  257.4338  341.4501 H   0  0  0  0  0  0  0  0  0  0  0  0  # atno 1161 bound_to 1154
  110.5281  255.2456  340.2010 H   0  0  0  0  0  0  0  0  0  0  0  0  # atno 1181 bound_to 1170
  109.9017  252.6664  342.7330 H   0  0  0  0  0  0  0  0  0  0  0  0  # atno 1185 bound_to 1175
  109.7205  253.5733  338.3283 H   0  0  0  0  0  0  0  0  0  0  0  0  # atno 1205 bound_to 1194
  107.4698  254.0627  335.5943 H   0  0  0  0  0  0  0  0  0  0  0  0  # atno 1241 bound_to 1232
  102.6272  254.6671  346.4544 H   0  0  0  0  0  0  0  0  0  0  0  0  # atno 11610 bound_to 11589
  117.8011  251.9310  339.1653 H   0  0  0  0  0  0  0  0  0  0  0  0  # atno 11931 bound_to 11915
  111.1051  249.9393  337.4160 H   0  0  0  0  0  0  0  0  0  0  0  0  # atno 13453 bound_to 13433
  110.2425  263.6989  343.1954 LP  0  0  0  0  0  0  0  0  0  0  0  0  # atno 13465 bound_to 1067
  109.5493  262.3773  342.3163 LP  0  0  0  0  0  0  0  0  0  0  0  0  # atno 13466 bound_to 1067
  110.4966  261.9260  344.9014 LP  0  0  0  0  0  0  0  0  0  0  0  0  # atno 13467 bound_to 1100
  108.7248  258.0805  342.9442 LP  0  0  0  0  0  0  0  0  0  0  0  0  # atno 13468 bound_to 1103
  109.4570  258.5860  344.4303 LP  0  0  0  0  0  0  0  0  0  0  0  0  # atno 13469 bound_to 1103
  110.9685  259.9396  341.0762 LP  0  0  0  0  0  0  0  0  0  0  0  0  # atno 13470 bound_to 1124
  109.1810  257.1404  338.4710 LP  0  0  0  0  0  0  0  0  0  0  0  0  # atno 13471 bound_to 1127
  110.7312  256.3823  338.3219 LP  0  0  0  0  0  0  0  0  0  0  0  0  # atno 13472 bound_to 1127
  110.9492  257.7301  339.8867 LP  0  0  0  0  0  0  0  0  0  0  0  0  # atno 13475 bound_to 1154
  113.4722  254.9370  337.9601 LP  0  0  0  0  0  0  0  0  0  0  0  0  # atno 13476 bound_to 1157
  112.6192  253.4842  338.3623 LP  0  0  0  0  0  0  0  0  0  0  0  0  # atno 13477 bound_to 1157
  112.1759  254.6739  340.2149 LP  0  0  0  0  0  0  0  0  0  0  0  0  # atno 13478 bound_to 1170
  108.2080  251.6997  339.3569 LP  0  0  0  0  0  0  0  0  0  0  0  0  # atno 13479 bound_to 1173
  109.0383  251.5438  337.8448 LP  0  0  0  0  0  0  0  0  0  0  0  0  # atno 13480 bound_to 1173
  108.8116  252.0096  341.7197 LP  0  0  0  0  0  0  0  0  0  0  0  0  # atno 13481 bound_to 1175
  109.2687  253.5664  341.5347 LP  0  0  0  0  0  0  0  0  0  0  0  0  # atno 13482 bound_to 1175
  109.0747  254.9526  339.1823 LP  0  0  0  0  0  0  0  0  0  0  0  0  # atno 13483 bound_to 1194
  110.0924  254.8359  336.2395 LP  0  0  0  0  0  0  0  0  0  0  0  0  # atno 13484 bound_to 1197
  109.3896  254.7628  334.6581 LP  0  0  0  0  0  0  0  0  0  0  0  0  # atno 13485 bound_to 1197
  107.5217  252.4092  336.1397 LP  0  0  0  0  0  0  0  0  0  0  0  0  # atno 13504 bound_to 1232
  109.7214  250.5162  338.0490 LP  0  0  0  0  0  0  0  0  0  0  0  0  # atno 13509 bound_to 13433
  109.7679  250.0243  336.4925 LP  0  0  0  0  0  0  0  0  0  0  0  0  # atno 13510 bound_to 13433

> <Gold.Score>
     Fitness  S(hb_ext) S(vdw_ext)  S(hb_int)    S(int)      intcor
     36.00       0.00      27.54       0.00      -1.88      -0.78

> <Gold.Goldscore.Fitness>
35.9951

> <Gold.Goldscore.Internal.Vdw>
-2.2031

> <Gold.Goldscore.Internal.Torsion>
-0.4546

> <Gold.Goldscore.External.Vdw>
27.5425

> <Gold.Goldscore.Internal.HBond>
0.0000

> <Gold.Goldscore.External.HBond>
0.0000

> <Gold.Goldscore.Internal.Correction>
-0.7819

> <Gold.Goldscore.Internal.Vdw.Weighted>
-2.2031

> <Gold.Goldscore.Internal.Torsion.Weighted>
-0.4546

> <Gold.Goldscore.External.Vdw.Weighted>
37.8710

> <Gold.Goldscore.Internal.HBond.Weighted>
0.0000

> <Gold.Goldscore.External.HBond.Weighted>
0.0000

> <Gold.Goldscore.Internal.Correction.Weighted>
-0.7819

> <Gold.Rescore>
     Score     S(PLP)   S(hbond)     S(cho)   S(metal)  DE(clash)   DE(tors)     intcor
     30.59     -32.33       0.00       0.00       0.00       1.33       0.20       ----

> <Gold.PLP.Fitness>
30.5926

> <Gold.PLP.PLP>
-32.3349

> <Gold.PLP.part.hbond>
-0.1092

> <Gold.PLP.part.metal>
0.0000

> <Gold.PLP.part.buried>
-6.2853

> <Gold.PLP.part.nonpolar>
-25.7847

> <Gold.PLP.part.repulsive>
0.2647

> <Gold.PLP.ligand.clash>
1.3327

> <Gold.PLP.ligand.torsion>
0.2048

> <Gold.PLP.Chemscore.Hbond>
0.0000

> <Gold.PLP.Chemscore.CHOScore>
0.0000

> <Gold.PLP.Chemscore.Metal>
0.0000

> <Gold.PLP.Chemscore.Internal.Correction>
   9.000000E+99

