@<TRIPOS>MOLECULE
CRS
    73    78     1     0     0
SMALL
NO_CHARGES
****
Generated from the CSD

@<TRIPOS>ATOM
     1 O1       2.4840   8.7480  17.1590   O.2       1 CRS   0.0000
     2 C2       2.0780   8.7450  18.3040   C.2       1 CRS   0.0000
     3 N3       2.3530   7.7670  19.2700   N.am      1 CRS   0.0000
     4 C4       3.1680   6.6110  19.0870   C.2       1 CRS   0.0000
     5 C5       2.9170   5.4170  19.7690   C.2       1 CRS   0.0000
     6 C6       3.7260   4.3130  19.5380   C.2       1 CRS   0.0000
     7 C7       4.7790   4.3910  18.6380   C.2       1 CRS   0.0000
     8 C8       5.0420   5.5780  17.9470   C.2       1 CRS   0.0000
     9 C9       6.1700   5.7060  16.9090   C.3       1 CRS   0.0000
    10 C10      7.1500   6.7430  17.4260   C.2       1 CRS   0.0000
    11 N11      7.3910   7.8820  16.8340   N.2       1 CRS   0.0000
    12 N12      8.3220   8.5470  17.6110   N.2       1 CRS   0.0000
    13 C13      8.5940   7.7770  18.6280   C.2       1 CRS   0.0000
    14 N14      7.8930   6.6420  18.5610   N.pl3     1 CRS   0.0000
    15 C15      7.9350   5.5500  19.5240   C.3       1 CRS   0.0000
    16 C16      5.5910   5.9900  15.4740   C.3       1 CRS   0.0000
    17 C17      5.7010   4.4630  15.2040   C.3       1 CRS   0.0000
    18 C18      6.1370   4.0170  13.8120   C.3       1 CRS   0.0000
    19 C19      6.7730   4.4220  16.3270   C.3       1 CRS   0.0000
    20 C20      4.2300   6.6800  18.1870   C.2       1 CRS   0.0000
    21 C21      1.7030   8.0480  20.5510   C.3       1 CRS   0.0000
    22 C22      0.9670   9.3250  20.2640   C.2       1 CRS   0.0000
    23 C23      0.1150  10.0730  21.0810   C.2       1 CRS   0.0000
    24 C24     -0.2300   9.6130  22.4660   C.3       1 CRS   0.0000
    25 C28     -0.4480  11.2470  20.5700   C.2       1 CRS   0.0000
    26 C29     -0.2160  11.6600  19.2470   C.2       1 CRS   0.0000
    27 C30     -0.9610  12.8370  18.6700   C.3       1 CRS   0.0000
    28 N31     -2.3040  12.4710  18.0660   N.3       1 CRS   0.0000
    29 C32     -2.2150  11.4980  16.9230   C.3       1 CRS   0.0000
    30 C33     -3.5540  11.2470  16.2550   C.3       1 CRS   0.0000
    31 C34     -3.4240  10.2440  15.1160   C.3       1 CRS   0.0000
    32 C35     -4.5790  10.7990  17.2960   C.3       1 CRS   0.0000
    33 C36     -4.6700  11.7860  18.4600   C.3       1 CRS   0.0000
    34 C37     -3.3120  12.0150  19.0930   C.3       1 CRS   0.0000
    35 C38      0.6300  10.8930  18.4490   C.2       1 CRS   0.0000
    36 C39      1.1930   9.7310  18.9630   C.2       1 CRS   0.0000
    37 F25      0.8200   9.4190  23.1830   F         1 CRS   0.0000
    38 F26     -0.9780  10.4690  23.0730   F         1 CRS   0.0000
    39 F27     -0.8440   8.4650  22.4830   F         1 CRS   0.0000
    40 H1       2.0920   5.3533  20.4770   H         1 CRS   0.0000
    41 H2       3.5331   3.3804  20.0662   H         1 CRS   0.0000
    42 H3       5.4077   3.5182  18.4678   H         1 CRS   0.0000
    43 H4       9.2961   8.0253  19.4225   H         1 CRS   0.0000
    44 H5       8.2541   4.6369  19.0237   H         1 CRS   0.0000
    45 H6       8.6388   5.7935  20.3185   H         1 CRS   0.0000
    46 H7       6.9435   5.4032  19.9498   H         1 CRS   0.0000
    47 H8       6.2255   6.6100  14.8425   H         1 CRS   0.0000
    48 H9       4.5748   6.3814  15.4632   H         1 CRS   0.0000
    49 H10      4.7934   3.9462  15.5124   H         1 CRS   0.0000
    50 H11     -3.4034  12.7778  19.8649   H         1 CRS   0.0000
    51 H12     -2.9670  11.0844  19.5413   H         1 CRS   0.0000
    52 H13      0.8489  11.2023  17.4281   H         1 CRS   0.0000
    53 H14      7.1267   4.4167  13.5962   H         1 CRS   0.0000
    54 H15      6.1683   2.9292  13.7726   H         1 CRS   0.0000
    55 H16      5.4272   4.3867  13.0735   H         1 CRS   0.0000
    56 H17      6.7028   3.5557  16.9831   H         1 CRS   0.0000
    57 H18      7.7976   4.5275  15.9735   H         1 CRS   0.0000
    58 H19      4.4270   7.6139  17.6626   H         1 CRS   0.0000
    59 H20      2.4369   8.1856  21.3437   H         1 CRS   0.0000
    60 H21      1.0153   7.2502  20.8275   H         1 CRS   0.0000
    61 H22     -1.0816  11.8559  21.2132   H         1 CRS   0.0000
    62 H23     -0.3451  13.2863  17.8924   H         1 CRS   0.0000
    63 H24     -1.1276  13.5620  19.4653   H         1 CRS   0.0000
    64 H25     -1.8328  10.5512  17.3017   H         1 CRS   0.0000
    65 H26     -1.5256  11.8967  16.1803   H         1 CRS   0.0000
    66 H27     -3.8980  12.1897  15.8320   H         1 CRS   0.0000
    67 H28     -3.0484   9.2990  15.5056   H         1 CRS   0.0000
    68 H29     -4.3995  10.0859  14.6584   H         1 CRS   0.0000
    69 H30     -2.7312  10.6300  14.3697   H         1 CRS   0.0000
    70 H31     -4.2868   9.8236  17.6822   H         1 CRS   0.0000
    71 H32     -5.5556  10.7233  16.8201   H         1 CRS   0.0000
    72 H33     -5.3494  11.3868  19.2117   H         1 CRS   0.0000
    73 H34     -5.0544  12.7357  18.0910   H         1 CRS   0.0000
@<TRIPOS>BOND
     1     1     2    2
     2     2     3   am
     3     2    36    1
     4     3     4    1
     5     3    21    1
     6     4     5    2
     7     4    20    1
     8     5     6    1
     9     6     7    2
    10     7     8    1
    11     8     9    1
    12     8    20    2
    13     9    10    1
    14     9    16    1
    15     9    19    1
    16    10    11    2
    17    10    14    1
    18    11    12    1
    19    12    13    2
    20    13    14    1
    21    14    15    1
    22    16    17    1
    23    17    18    1
    24    17    19    1
    25    21    22    1
    26    22    23    1
    27    22    36    2
    28    23    24    1
    29    23    25    2
    30    24    37    1
    31    24    38    1
    32    24    39    1
    33    25    26    1
    34    26    27    1
    35    26    35    2
    36    27    28    1
    37    28    29    1
    38    28    34    1
    39    29    30    1
    40    30    31    1
    41    30    32    1
    42    32    33    1
    43    33    34    1
    44    35    36    1
    45     5    40    1
    46     6    41    1
    47     7    42    1
    48    13    43    1
    49    15    44    1
    50    15    45    1
    51    15    46    1
    52    16    47    1
    53    16    48    1
    54    17    49    1
    55    34    50    1
    56    34    51    1
    57    35    52    1
    58    18    53    1
    59    18    54    1
    60    18    55    1
    61    19    56    1
    62    19    57    1
    63    20    58    1
    64    21    59    1
    65    21    60    1
    66    25    61    1
    67    27    62    1
    68    27    63    1
    69    29    64    1
    70    29    65    1
    71    30    66    1
    72    31    67    1
    73    31    68    1
    74    31    69    1
    75    32    70    1
    76    32    71    1
    77    33    72    1
    78    33    73    1
@<TRIPOS>SUBSTRUCTURE
     1 CRS      1 GROUP             0 ****  ****    0  
