@<TRIPOS>MOLECULE
D:GOL880
    14    13     1     0     1
SMALL
NO_CHARGES
****
Generated from the CSD

@<TRIPOS>ATOM
     1 C1     245.6330  -4.4250  45.0700   C.3       1 GOL880   0.0000
     2 O1     246.9940  -4.1890  45.4440   O.3       1 GOL880   0.0000
     3 C2     245.5610  -5.6360  44.1430   C.3       1 GOL880   0.0000
     4 O2     244.1980  -6.0180  44.0160   O.3       1 GOL880   0.0000
     5 C3     246.1030  -5.3620  42.7410   C.3       1 GOL880   0.0000
     6 O3     245.0280  -5.0010  41.8610   O.3       1 GOL880   0.0000
     7 H1     243.6772  -5.2641  43.6334   H         1 GOL880   0.0000
     8 H2     246.1211  -6.4578  44.5868   H         1 GOL880   0.0000
     9 H3     247.5355  -4.0148  44.6301   H         1 GOL880   0.0000
    10 H4     245.2416  -3.5495  44.5541   H         1 GOL880   0.0000
    11 H5     245.0394  -4.6158  45.9628   H         1 GOL880   0.0000
    12 H6     244.5801  -4.1837  42.2036   H         1 GOL880   0.0000
    13 H7     246.5935  -6.2576  42.3626   H         1 GOL880   0.0000
    14 H8     246.8222  -4.5455  42.7856   H         1 GOL880   0.0000
@<TRIPOS>BOND
     1     1     2    1
     2     1     3    1
     3     3     4    1
     4     3     5    1
     5     5     6    1
     6     4     7    1
     7     3     8    1
     8     2     9    1
     9     1    10    1
    10     1    11    1
    11     6    12    1
    12     5    13    1
    13     5    14    1
@<TRIPOS>SUBSTRUCTURE
     1 GOL880      1 GROUP             0 D     GOL     0  
@<TRIPOS>SET
CCDC_LIGAND STATIC ATOMS
14 1 2 3 4 5 6 7 8 9 \
10 11 12 13 14 
