@<TRIPOS>MOLECULE
D:GOL881
    14    13     1     0     1
SMALL
NO_CHARGES
****
Generated from the CSD

@<TRIPOS>ATOM
     1 C1     229.3700   0.4830  42.1220   C.3       1 GOL881   0.0000
     2 O1     230.7600   0.7990  42.3320   O.3       1 GOL881   0.0000
     3 C2     228.5550   1.4760  42.9350   C.3       1 GOL881   0.0000
     4 O2     229.4630   2.2650  43.7180   O.3       1 GOL881   0.0000
     5 C3     227.7870   2.3960  41.9940   C.3       1 GOL881   0.0000
     6 O3     226.3950   2.0330  41.9030   O.3       1 GOL881   0.0000
     7 H1     225.9783   2.0909  42.8025   H         1 GOL881   0.0000
     8 H2     228.2320   2.3355  41.0019   H         1 GOL881   0.0000
     9 H3     227.8607   3.4179  42.3632   H         1 GOL881   0.0000
    10 H4     227.8625   0.9459  43.5871   H         1 GOL881   0.0000
    11 H5     230.9753   0.7193  43.2981   H         1 GOL881   0.0000
    12 H6     230.0868   2.7478  43.1148   H         1 GOL881   0.0000
    13 H7     229.1635  -0.5323  42.4574   H         1 GOL881   0.0000
    14 H8     229.1223   0.5737  41.0654   H         1 GOL881   0.0000
@<TRIPOS>BOND
     1     1     2    1
     2     1     3    1
     3     3     4    1
     4     3     5    1
     5     5     6    1
     6     6     7    1
     7     5     8    1
     8     5     9    1
     9     3    10    1
    10     2    11    1
    11     4    12    1
    12     1    13    1
    13     1    14    1
@<TRIPOS>SUBSTRUCTURE
     1 GOL881      1 GROUP             0 D     GOL     0  
@<TRIPOS>SET
CCDC_LIGAND STATIC ATOMS
14 1 2 3 4 5 6 7 8 9 \
10 11 12 13 14 
