@<TRIPOS>MOLECULE
D:ARG770
    24    23     1     0     1
SMALL
NO_CHARGES
****
Generated from the CSD

@<TRIPOS>ATOM
     1 N      249.9290  16.0790  33.5010   N.3       1 ARG770   0.0000
     2 CA     250.9830  15.7420  34.4500   C.3       1 ARG770   0.0000
     3 C      252.3310  15.9320  33.7960   C.2       1 ARG770   0.0000
     4 O      252.3980  16.3020  32.6000   O.2       1 ARG770   0.0000
     5 CB     250.8540  14.2890  34.9680   C.3       1 ARG770   0.0000
     6 CG     249.4970  14.0420  35.6420   C.3       1 ARG770   0.0000
     7 CD     249.0960  12.5810  35.9030   C.3       1 ARG770   0.0000
     8 NE     249.0590  11.8740  34.6330   N.2       1 ARG770   0.0000
     9 CZ     248.8920  10.5460  34.4160   C.ar      1 ARG770   0.0000
    10 NH1    248.8820  10.0910  33.1650   N.2       1 ARG770   0.0000
    11 NH2    248.7410   9.6630  35.4160   N.2       1 ARG770   0.0000
    12 OXT    253.3600  15.7100  34.4660   O.3       1 ARG770   0.0000
    13 H1     253.3594  14.7647  34.7701   H         1 ARG770   0.0000
    14 H2     248.6186   8.6770  35.2083   H         1 ARG770   0.0000
    15 H3     248.7580   9.0995  32.9866   H         1 ARG770   0.0000
    16 H4     248.1124  12.5486  36.3693   H         1 ARG770   0.0000
    17 H5     249.8257  12.1128  36.5620   H         1 ARG770   0.0000
    18 H6     248.7307  14.4832  35.0063   H         1 ARG770   0.0000
    19 H7     249.5107  14.5543  36.6029   H         1 ARG770   0.0000
    20 H8     251.6461  14.1011  35.6913   H         1 ARG770   0.0000
    21 H9     250.9599  13.6045  34.1276   H         1 ARG770   0.0000
    22 H10    250.9125  16.4194  35.2997   H         1 ARG770   0.0000
    23 H11    249.9988  15.4741  32.6890   H         1 ARG770   0.0000
    24 H12    249.0236  15.9510  33.9415   H         1 ARG770   0.0000
@<TRIPOS>BOND
     1     1     2    1
     2     2     3    1
     3     3     4    2
     4     2     5    1
     5     5     6    1
     6     6     7    1
     7     7     8    1
     8     8     9   ar
     9     9    10   ar
    10     9    11   ar
    11     3    12    1
    12    12    13    1
    13    11    14    1
    14    10    15    1
    15     7    16    1
    16     7    17    1
    17     6    18    1
    18     6    19    1
    19     5    20    1
    20     5    21    1
    21     2    22    1
    22     1    23    1
    23     1    24    1
@<TRIPOS>SUBSTRUCTURE
     1 ARG770      1 GROUP             0 D     ARG     0  
@<TRIPOS>SET
CCDC_LIGAND STATIC ATOMS
24 1 2 3 4 5 6 7 8 9 \
10 11 12 13 14 15 16 17 18 19 \
20 21 22 23 24 
