@<TRIPOS>MOLECULE
A:GOL880
    14    13     1     0     1
SMALL
NO_CHARGES
****
Generated from the CSD

@<TRIPOS>ATOM
     1 C1     212.8060  53.0270  66.8160   C.3       1 GOL880   0.0000
     2 O1     213.3330  52.9650  68.1430   O.3       1 GOL880   0.0000
     3 C2     211.6640  54.0410  66.7350   C.3       1 GOL880   0.0000
     4 O2     211.5160  54.4250  65.3690   O.3       1 GOL880   0.0000
     5 C3     210.3670  53.4390  67.2580   C.3       1 GOL880   0.0000
     6 O3     209.3740  53.2740  66.2330   O.3       1 GOL880   0.0000
     7 H1     209.9652  54.0953  68.0286   H         1 GOL880   0.0000
     8 H2     210.5860  52.4636  67.6899   H         1 GOL880   0.0000
     9 H3     209.7244  52.6703  65.5268   H         1 GOL880   0.0000
    10 H4     211.3046  53.6243  64.8211   H         1 GOL880   0.0000
    11 H5     211.9187  54.9174  67.3291   H         1 GOL880   0.0000
    12 H6     212.6150  52.6908  68.7718   H         1 GOL880   0.0000
    13 H7     212.4320  52.0440  66.5335   H         1 GOL880   0.0000
    14 H8     213.5979  53.3249  66.1304   H         1 GOL880   0.0000
@<TRIPOS>BOND
     1     1     2    1
     2     1     3    1
     3     3     4    1
     4     3     5    1
     5     5     6    1
     6     5     7    1
     7     5     8    1
     8     6     9    1
     9     4    10    1
    10     3    11    1
    11     2    12    1
    12     1    13    1
    13     1    14    1
@<TRIPOS>SUBSTRUCTURE
     1 GOL880      1 GROUP             0 A     GOL     0  
@<TRIPOS>SET
CCDC_LIGAND STATIC ATOMS
14 1 2 3 4 5 6 7 8 9 \
10 11 12 13 14 
