@<TRIPOS>MOLECULE
A:ARG770
    24    23     1     0     1
SMALL
NO_CHARGES
****
Generated from the CSD

@<TRIPOS>ATOM
     1 N      206.1170  30.5780  70.9850   N.3       1 ARG770   0.0000
     2 CA     207.0610  31.0280  71.9850   C.3       1 ARG770   0.0000
     3 C      206.5100  30.6760  73.3560   C.2       1 ARG770   0.0000
     4 O      205.4110  30.0880  73.3860   O.2       1 ARG770   0.0000
     5 CB     207.2710  32.5460  71.8440   C.3       1 ARG770   0.0000
     6 CG     207.8870  32.9150  70.4870   C.3       1 ARG770   0.0000
     7 CD     207.7960  34.4150  70.1720   C.3       1 ARG770   0.0000
     8 NE     206.3960  34.8310  70.1440   N.2       1 ARG770   0.0000
     9 CZ     205.9070  36.0820  70.0850   C.ar      1 ARG770   0.0000
    10 NH1    204.5930  36.2500  70.0550   N.2       1 ARG770   0.0000
    11 NH2    206.6920  37.1700  70.0640   N.2       1 ARG770   0.0000
    12 OXT    207.1200  30.9820  74.4180   O.3       1 ARG770   0.0000
    13 H1     207.2255  31.9682  74.4667   H         1 ARG770   0.0000
    14 H2     206.2764  38.0949  70.0190   H         1 ARG770   0.0000
    15 H3     204.2019  37.1856  70.0104   H         1 ARG770   0.0000
    16 H4     208.2501  34.6087  69.2014   H         1 ARG770   0.0000
    17 H5     208.3252  34.9782  70.9392   H         1 ARG770   0.0000
    18 H6     207.3626  32.3647  69.7072   H         1 ARG770   0.0000
    19 H7     208.9367  32.6251  70.4926   H         1 ARG770   0.0000
    20 H8     207.9367  32.8845  72.6366   H         1 ARG770   0.0000
    21 H9     206.3080  33.0452  71.9409   H         1 ARG770   0.0000
    22 H10    208.0118  30.5180  71.8376   H         1 ARG770   0.0000
    23 H11    205.2248  31.0397  71.1300   H         1 ARG770   0.0000
    24 H12    206.4693  30.8052  70.0606   H         1 ARG770   0.0000
@<TRIPOS>BOND
     1     1     2    1
     2     2     3    1
     3     3     4    2
     4     2     5    1
     5     5     6    1
     6     6     7    1
     7     7     8    1
     8     8     9   ar
     9     9    10   ar
    10     9    11   ar
    11     3    12    1
    12    12    13    1
    13    11    14    1
    14    10    15    1
    15     7    16    1
    16     7    17    1
    17     6    18    1
    18     6    19    1
    19     5    20    1
    20     5    21    1
    21     2    22    1
    22     1    23    1
    23     1    24    1
@<TRIPOS>SUBSTRUCTURE
     1 ARG770      1 GROUP             0 A     ARG     0  
@<TRIPOS>SET
CCDC_LIGAND STATIC ATOMS
24 1 2 3 4 5 6 7 8 9 \
10 11 12 13 14 15 16 17 18 19 \
20 21 22 23 24 
