@<TRIPOS>MOLECULE
B:ARG770
    24    23     1     0     1
SMALL
NO_CHARGES
****
Generated from the CSD

@<TRIPOS>ATOM
     1 N      186.6930  16.1760  51.6130   N.3       1 ARG770   0.0000
     2 CA     185.6670  15.6150  50.7470   C.3       1 ARG770   0.0000
     3 C      184.3170  15.8270  51.3950   C.2       1 ARG770   0.0000
     4 O      184.2600  16.4910  52.4550   O.2       1 ARG770   0.0000
     5 CB     185.9230  14.1120  50.5170   C.3       1 ARG770   0.0000
     6 CG     187.2580  13.8720  49.8020   C.3       1 ARG770   0.0000
     7 CD     187.6220  12.3900  49.6690   C.3       1 ARG770   0.0000
     8 NE     187.7940  11.8600  51.0150   N.2       1 ARG770   0.0000
     9 CZ     188.0240  10.5990  51.4200   C.ar      1 ARG770   0.0000
    10 NH1    188.1500  10.3990  52.7320   N.2       1 ARG770   0.0000
    11 NH2    188.1120   9.5710  50.5520   N.2       1 ARG770   0.0000
    12 OXT    183.3020  15.3190  50.8790   O.3       1 ARG770   0.0000
    13 H1     183.4056  14.3319  50.8471   H         1 ARG770   0.0000
    14 H2     186.6663  15.7106  52.5146   H         1 ARG770   0.0000
    15 H3     187.6051  16.0401  51.1889   H         1 ARG770   0.0000
    16 H4     188.2867   8.6315  50.8941   H         1 ARG770   0.0000
    17 H5     188.3244   9.4648  53.0885   H         1 ARG770   0.0000
    18 H6     188.5481  12.2835  49.1061   H         1 ARG770   0.0000
    19 H7     186.8229  11.8551  49.1579   H         1 ARG770   0.0000
    20 H8     188.0452  14.3711  50.3651   H         1 ARG770   0.0000
    21 H9     187.1967  14.3028  48.8037   H         1 ARG770   0.0000
    22 H10    185.1172  13.7050  49.9079   H         1 ARG770   0.0000
    23 H11    185.9415  13.6047  51.4805   H         1 ARG770   0.0000
    24 H12    185.6877  16.1313  49.7884   H         1 ARG770   0.0000
@<TRIPOS>BOND
     1     1     2    1
     2     2     3    1
     3     3     4    2
     4     2     5    1
     5     5     6    1
     6     6     7    1
     7     7     8    1
     8     8     9   ar
     9     9    10   ar
    10     9    11   ar
    11     3    12    1
    12    12    13    1
    13     1    14    1
    14     1    15    1
    15    11    16    1
    16    10    17    1
    17     7    18    1
    18     7    19    1
    19     6    20    1
    20     6    21    1
    21     5    22    1
    22     5    23    1
    23     2    24    1
@<TRIPOS>SUBSTRUCTURE
     1 ARG770      1 GROUP             0 B     ARG     0  
@<TRIPOS>SET
CCDC_LIGAND STATIC ATOMS
24 1 2 3 4 5 6 7 8 9 \
10 11 12 13 14 15 16 17 18 19 \
20 21 22 23 24 
