@<TRIPOS>MOLECULE
C:GOL881
    14    13     1     0     1
SMALL
NO_CHARGES
****
Generated from the CSD

@<TRIPOS>ATOM
     1 C1     225.0130  46.3290  31.0050   C.3       1 GOL881   0.0000
     2 O1     224.7540  46.0170  29.6390   O.3       1 GOL881   0.0000
     3 C2     224.4200  45.2110  31.8480   C.3       1 GOL881   0.0000
     4 O2     224.6410  45.5170  33.2270   O.3       1 GOL881   0.0000
     5 C3     222.9220  45.0630  31.5980   C.3       1 GOL881   0.0000
     6 O3     222.3160  44.5570  32.7960   O.3       1 GOL881   0.0000
     7 H1     224.2012  46.3791  33.4494   H         1 GOL881   0.0000
     8 H2     223.7736  45.9549  29.4938   H         1 GOL881   0.0000
     9 H3     224.5467  47.2782  31.2647   H         1 GOL881   0.0000
    10 H4     226.0867  46.3936  31.1748   H         1 GOL881   0.0000
    11 H5     224.9188  44.2743  31.6039   H         1 GOL881   0.0000
    12 H6     222.4765  45.1924  33.5420   H         1 GOL881   0.0000
    13 H7     222.7521  44.3681  30.7769   H         1 GOL881   0.0000
    14 H8     222.4923  46.0320  31.3483   H         1 GOL881   0.0000
@<TRIPOS>BOND
     1     1     2    1
     2     1     3    1
     3     3     4    1
     4     3     5    1
     5     5     6    1
     6     4     7    1
     7     2     8    1
     8     1     9    1
     9     1    10    1
    10     3    11    1
    11     6    12    1
    12     5    13    1
    13     5    14    1
@<TRIPOS>SUBSTRUCTURE
     1 GOL881      1 GROUP             0 C     GOL     0  
@<TRIPOS>SET
CCDC_LIGAND STATIC ATOMS
14 1 2 3 4 5 6 7 8 9 \
10 11 12 13 14 
