@<TRIPOS>MOLECULE
C:ARG770
    24    23     1     0     1
SMALL
NO_CHARGES
****
Generated from the CSD

@<TRIPOS>ATOM
     1 N      229.9540  26.9850  12.6740   N.3       1 ARG770   0.0000
     2 CA     229.0310  27.3330  11.6080   C.3       1 ARG770   0.0000
     3 C      229.5930  26.8670  10.2770   C.2       1 ARG770   0.0000
     4 O      230.7150  26.3280  10.2130   O.2       1 ARG770   0.0000
     5 CB     228.7730  28.8540  11.5480   C.3       1 ARG770   0.0000
     6 CG     228.0970  29.4200  12.8060   C.3       1 ARG770   0.0000
     7 CD     228.1390  30.9610  12.9040   C.3       1 ARG770   0.0000
     8 NE     229.5180  31.4200  12.8080   N.2       1 ARG770   0.0000
     9 CZ     229.9770  32.6960  12.7880   C.ar      1 ARG770   0.0000
    10 NH1    231.2980  32.8810  12.6930   N.2       1 ARG770   0.0000
    11 NH2    229.1410  33.7580  12.8400   N.2       1 ARG770   0.0000
    12 OXT    228.9350  27.0470   9.2490   O.3       1 ARG770   0.0000
    13 H1     228.7767  28.0192   9.1233   H         1 ARG770   0.0000
    14 H2     229.5166  34.7008  12.8232   H         1 ARG770   0.0000
    15 H3     231.6787  33.8217  12.6751   H         1 ARG770   0.0000
    16 H4     227.7183  31.2749  13.8581   H         1 ARG770   0.0000
    17 H5     227.5564  31.3917  12.0910   H         1 ARG770   0.0000
    18 H6     228.5998  29.0077  13.6796   H         1 ARG770   0.0000
    19 H7     227.0544  29.1055  12.8051   H         1 ARG770   0.0000
    20 H8     228.1319  29.0597  10.6921   H         1 ARG770   0.0000
    21 H9     229.7286  29.3591  11.4154   H         1 ARG770   0.0000
    22 H10    228.0844  26.8245  11.7852   H         1 ARG770   0.0000
    23 H11    230.8479  27.4363  12.5083   H         1 ARG770   0.0000
    24 H12    229.5771  27.2971  13.5632   H         1 ARG770   0.0000
@<TRIPOS>BOND
     1     1     2    1
     2     2     3    1
     3     3     4    2
     4     2     5    1
     5     5     6    1
     6     6     7    1
     7     7     8    1
     8     8     9   ar
     9     9    10   ar
    10     9    11   ar
    11     3    12    1
    12    12    13    1
    13    11    14    1
    14    10    15    1
    15     7    16    1
    16     7    17    1
    17     6    18    1
    18     6    19    1
    19     5    20    1
    20     5    21    1
    21     2    22    1
    22     1    23    1
    23     1    24    1
@<TRIPOS>SUBSTRUCTURE
     1 ARG770      1 GROUP             0 C     ARG     0  
@<TRIPOS>SET
CCDC_LIGAND STATIC ATOMS
24 1 2 3 4 5 6 7 8 9 \
10 11 12 13 14 15 16 17 18 19 \
20 21 22 23 24 
