@<TRIPOS>MOLECULE
C:GOL880
    14    13     1     0     1
SMALL
NO_CHARGES
****
Generated from the CSD

@<TRIPOS>ATOM
     1 C1     222.3170  49.7540  13.8740   C.3       1 GOL880   0.0000
     2 O1     221.9080  49.4220  12.5490   O.3       1 GOL880   0.0000
     3 C2     223.3620  50.8720  13.8260   C.3       1 GOL880   0.0000
     4 O2     223.5690  51.3550  15.1490   O.3       1 GOL880   0.0000
     5 C3     224.7100  50.3700  13.3230   C.3       1 GOL880   0.0000
     6 O3     225.3720  49.6330  14.3600   O.3       1 GOL880   0.0000
     7 H1     222.6949  49.1151  12.0268   H         1 GOL880   0.0000
     8 H2     222.7486  48.8751  14.3506   H         1 GOL880   0.0000
     9 H3     221.4534  50.0899  14.4461   H         1 GOL880   0.0000
    10 H4     224.8110  48.8576  14.6248   H         1 GOL880   0.0000
    11 H5     225.3267  51.2194  13.0330   H         1 GOL880   0.0000
    12 H6     224.5559  49.7223  12.4612   H         1 GOL880   0.0000
    13 H7     223.8924  50.6137  15.7252   H         1 GOL880   0.0000
    14 H8     223.0081  51.6811  13.1887   H         1 GOL880   0.0000
@<TRIPOS>BOND
     1     1     2    1
     2     1     3    1
     3     3     4    1
     4     3     5    1
     5     5     6    1
     6     2     7    1
     7     1     8    1
     8     1     9    1
     9     6    10    1
    10     5    11    1
    11     5    12    1
    12     4    13    1
    13     3    14    1
@<TRIPOS>SUBSTRUCTURE
     1 GOL880      1 GROUP             0 C     GOL     0  
@<TRIPOS>SET
CCDC_LIGAND STATIC ATOMS
14 1 2 3 4 5 6 7 8 9 \
10 11 12 13 14 
