@<TRIPOS>MOLECULE
B:GOL880
    14    13     1     0     1
SMALL
NO_CHARGES
****
Generated from the CSD

@<TRIPOS>ATOM
     1 C1     191.9170  -6.7870  42.8460   C.3       1 GOL880   0.0000
     2 O1     191.2820  -5.4920  42.8140   O.3       1 GOL880   0.0000
     3 C2     192.5940  -7.1380  44.1880   C.3       1 GOL880   0.0000
     4 O2     193.9300  -6.6340  44.1950   O.3       1 GOL880   0.0000
     5 C3     191.8770  -6.6210  45.4370   C.3       1 GOL880   0.0000
     6 O3     192.7430  -5.7530  46.1870   O.3       1 GOL880   0.0000
     7 H1     191.5877  -7.4657  46.0605   H         1 GOL880   0.0000
     8 H2     190.9872  -6.0692  45.1377   H         1 GOL880   0.0000
     9 H3     191.9593  -4.7869  42.9877   H         1 GOL880   0.0000
    10 H4     193.9123  -5.6476  44.0818   H         1 GOL880   0.0000
    11 H5     192.6763  -6.8123  42.0657   H         1 GOL880   0.0000
    12 H6     191.1596  -7.5418  42.6401   H         1 GOL880   0.0000
    13 H7     192.6473  -8.2233  44.2601   H         1 GOL880   0.0000
    14 H8     193.0071  -4.9803  45.6220   H         1 GOL880   0.0000
@<TRIPOS>BOND
     1     1     2    1
     2     1     3    1
     3     3     4    1
     4     3     5    1
     5     5     6    1
     6     5     7    1
     7     5     8    1
     8     2     9    1
     9     4    10    1
    10     1    11    1
    11     1    12    1
    12     3    13    1
    13     6    14    1
@<TRIPOS>SUBSTRUCTURE
     1 GOL880      1 GROUP             0 B     GOL     0  
@<TRIPOS>SET
CCDC_LIGAND STATIC ATOMS
14 1 2 3 4 5 6 7 8 9 \
10 11 12 13 14 
