@<TRIPOS>MOLECULE
C:GOL882
    14    13     1     0     1
SMALL
NO_CHARGES
****
Generated from the CSD

@<TRIPOS>ATOM
     1 C1     210.4640  50.1560   8.4700   C.3       1 GOL882   0.0000
     2 O1     210.2830  51.3160   9.2880   O.3       1 GOL882   0.0000
     3 C2     211.8340  50.2160   7.8120   C.3       1 GOL882   0.0000
     4 O2     212.8260  50.6250   8.7580   O.3       1 GOL882   0.0000
     5 C3     212.1830  48.8400   7.2480   C.3       1 GOL882   0.0000
     6 O3     213.5870  48.5360   7.3040   O.3       1 GOL882   0.0000
     7 H1     212.8563  49.9747   9.5079   H         1 GOL882   0.0000
     8 H2     209.6922  50.1279   7.7022   H         1 GOL882   0.0000
     9 H3     210.3952  49.2612   9.0868   H         1 GOL882   0.0000
    10 H4     211.8040  50.9364   6.9959   H         1 GOL882   0.0000
    11 H5     210.3465  52.1314   8.7248   H         1 GOL882   0.0000
    12 H6     213.8926  48.5561   8.2486   H         1 GOL882   0.0000
    13 H7     211.8636  48.8029   6.2075   H         1 GOL882   0.0000
    14 H8     211.6441  48.0863   7.8202   H         1 GOL882   0.0000
@<TRIPOS>BOND
     1     1     2    1
     2     1     3    1
     3     3     4    1
     4     3     5    1
     5     5     6    1
     6     4     7    1
     7     1     8    1
     8     1     9    1
     9     3    10    1
    10     2    11    1
    11     6    12    1
    12     5    13    1
    13     5    14    1
@<TRIPOS>SUBSTRUCTURE
     1 GOL882      1 GROUP             0 C     GOL     0  
@<TRIPOS>SET
CCDC_LIGAND STATIC ATOMS
14 1 2 3 4 5 6 7 8 9 \
10 11 12 13 14 
