#       Name:                CT1002167954
#       Creating user name   hitesit
#       Creation time:       Sun Apr 16 22:50:49 2023


#       File generated by GOLD software.
#

@<TRIPOS>MOLECULE
CT1002167954|ligand_prepared|mol2|1|dock7
    29    30     1
SMALL
NO_CHARGES


@<TRIPOS>ATOM
      1 C1          -9.4472  -7.5804  17.6152 C.3            1 RES1               0.0000
      2 C2          -9.1881  -9.0302  18.0732 C.ar           1 RES1               0.0000
      3 C3         -10.1592  -6.8862  18.7725 C.2            1 RES1               0.0000
      4 C4          -8.0826  -6.9888  17.2796 C.2            1 RES1               0.0000
      5 C5         -10.3375  -7.4728  16.3553 C.3            1 RES1               0.0000
      6 C6          -9.1438  -9.3483  19.4273 C.ar           1 RES1               0.0000
      7 C7          -8.9947 -10.0589  17.1551 C.ar           1 RES1               0.0000
      8 N8          -9.4417  -5.9913  19.5101 N.am           1 RES1               0.0000
      9 O9         -11.3208  -7.1493  19.0581 O.2            1 RES1               0.0000
     10 N10         -7.6197  -5.9603  18.0578 N.am           1 RES1               0.0000
     11 O11         -7.3968  -7.4151  16.3586 O.2            1 RES1               0.0000
     12 C12        -11.5712  -8.3607  16.3987 C.3            1 RES1               0.0000
     13 C13         -8.9172 -10.6482  19.8483 C.ar           1 RES1               0.0000
     14 C14         -8.7680 -11.3581  17.5783 C.ar           1 RES1               0.0000
     15 C15         -8.2238  -5.4552  19.1768 C.2            1 RES1               0.0000
     16 C16         -8.7297 -11.6540  18.9243 C.ar           1 RES1               0.0000
     17 O17         -7.7190  -4.5660  19.8562 O.2            1 RES1               0.0000
     18 H18        -10.6568  -6.4301  16.2366 H              1 RES1               0.0000
     19 H19         -9.7393  -7.7425  15.4761 H              1 RES1               0.0000
     20 H20         -9.2867  -8.5696  20.1691 H              1 RES1               0.0000
     21 H21         -9.0196  -9.8493  16.0911 H              1 RES1               0.0000
     22 H22         -9.8481  -5.6931  20.3911 H              1 RES1               0.0000
     23 H23         -6.7437  -5.5313  17.7767 H              1 RES1               0.0000
     24 H24        -12.1605  -8.2468  15.4912 H              1 RES1               0.0000
     25 H25        -11.2900  -9.4076  16.4910 H              1 RES1               0.0000
     26 H26        -12.2021  -8.1031  17.2470 H              1 RES1               0.0000
     27 H27         -8.8866 -10.8756  20.9088 H              1 RES1               0.0000
     28 H28         -8.6203 -12.1464  16.8475 H              1 RES1               0.0000
     29 H29         -8.5526 -12.6722  19.2544 H              1 RES1               0.0000
@<TRIPOS>BOND
    1    1    2 1     
    2    1    3 1     
    3    1    4 1     
    4    1    5 1     
    5    2    6 ar    
    6    2    7 ar    
    7    3    8 1     
    8    3    9 2     
    9    4   10 1     
   10    4   11 2     
   11    5   12 1     
   12    5   18 1     
   13    5   19 1     
   14    6   13 ar    
   15    6   20 1     
   16    7   14 ar    
   17    7   21 1     
   18    8   15 1     
   19    8   22 1     
   20   10   15 1     
   21   10   23 1     
   22   12   24 1     
   23   12   25 1     
   24   12   26 1     
   25   13   16 ar    
   26   13   27 1     
   27   14   16 ar    
   28   14   28 1     
   29   15   17 2     
   30   16   29 1     
@<TRIPOS>SUBSTRUCTURE
      1 RES1           1
@<TRIPOS>SET
DONOR_HYDROGENS      STATIC     ATOMS    <user>   **** ""
2 22 23
ATOM$RED        STATIC     ATOMS    COLORGROUP SYSTEM
2 22 23
@<TRIPOS>COMMENT
> <Gold.Version>
2022.3.0

> <Gold.Id.Protein>
unknown|3ovv_clean|pdb

> <Gold.Protein.RotatedTorsions>
[ 3725 3716 3715 3713 ] final -177.08 input   59.99 | X-H torsion
[ 3645 3636 3635 3633 ] final   73.16 input   60.03 | X-H torsion
[ 3915 3906 3905 3903 ] final  -72.98 input   60.03 | X-H torsion
[ 3186 3179 3177 3174 ] final  -22.91 input   59.97 | X-H torsion
[ 5212 5203 5202 5200 ] final -170.15 input   59.98 | X-H torsion
[ 2635 2624 2623 2622 ] final   35.49 input   60.00 | X-H torsion
[  602  597  595  592 ] final   61.95 input   59.96 | X-H torsion
[ 1943 1939 1938 1935 ] final -136.74 input   60.01 | X-H torsion
[ 3236 3227 3226 3224 ] final  168.89 input   60.01 | X-H torsion
[  622  617  616  613 ] final   80.90 input   59.98 | X-H torsion
[ 3133 3124 3123 3122 ] final -125.16 input   59.98 | X-H torsion
[ 3412 3403 3402 3400 ] final  145.79 input   59.99 | X-H torsion
[ 3134 3125 3123 3122 ] final   53.92 input   60.00 | X-H torsion

> <Gold.Protein.ActiveResidues>
 LEU49   GLY50   THR51   GLY52   SER53   PHE54   VAL79   LEU82   LYS83   GLN84  
 HIS87   THR88   GLY126  GLU127  MET128  PHE129  SER130  HIS131  LEU132  ARG133 
 ARG134  ILE135  GLY136  ARG137  ARG165  ASP166  LEU167  LYS168  PRO169  GLU170 
 ASN171  LEU173  ASP184  GLY186  PHE187  TRP196  TPO197  LEU198  CYS199  GLY200 
 THR201  PRO202  GLU203  TYR204  LEU205  ILE209  ILE210  TYR215  VAL226  LEU227 
 TYR229  GLU230  ALA233  GLY234  TYR235  PRO236  PRO237  PHE238  PHE239  ALA240 
 ASP241  GLN242  PRO243  ILE244  GLN245  ILE246  TYR247  ARG256  PHE257  PRO258 
 SER259  HIS260  ASN326  PHE327  ASP328  ASP329  TYR330 

> <Gold.Protein.RotatedAtoms>
   -5.8838   -1.7722   14.3594 H   0  0  0  0  0  0  0  0  0  0  0  0  # atno 602  bound_to 597 
   -7.5298    0.9929   21.4116 H   0  0  0  0  0  0  0  0  0  0  0  0  # atno 622  bound_to 617 
  -13.3150   -8.2434    7.1840 H   0  0  0  0  0  0  0  0  0  0  0  0  # atno 1943 bound_to 1939
  -15.4315   -0.5724   19.5057 H   0  0  0  0  0  0  0  0  0  0  0  0  # atno 2635 bound_to 2624
  -14.0057   -1.3928   19.7044 H   0  0  0  0  0  0  0  0  0  0  0  0  # atno 2636 bound_to 2624
  -14.4588   -0.8708   18.1979 H   0  0  0  0  0  0  0  0  0  0  0  0  # atno 2637 bound_to 2624
  -14.5400   -0.6776   34.0632 H   0  0  0  0  0  0  0  0  0  0  0  0  # atno 3133 bound_to 3124
  -16.6970    0.8070   34.4120 H   0  0  0  0  0  0  0  0  0  0  0  0  # atno 3134 bound_to 3125
  -15.8802    0.8069   21.1968 H   0  0  0  0  0  0  0  0  0  0  0  0  # atno 3186 bound_to 3179
  -23.8464   -3.8141   16.5619 H   0  0  0  0  0  0  0  0  0  0  0  0  # atno 3236 bound_to 3227
  -18.7384    0.2514   32.5922 H   0  0  0  0  0  0  0  0  0  0  0  0  # atno 3412 bound_to 3403
  -32.9017    1.7943   11.2784 H   0  0  0  0  0  0  0  0  0  0  0  0  # atno 3645 bound_to 3636
  -32.6252    1.8641    7.0039 H   0  0  0  0  0  0  0  0  0  0  0  0  # atno 3725 bound_to 3716
  -18.0882    8.2363   23.6676 H   0  0  0  0  0  0  0  0  0  0  0  0  # atno 3915 bound_to 3906
   -8.7374   -3.9804   10.8321 H   0  0  0  0  0  0  0  0  0  0  0  0  # atno 5212 bound_to 5203
  -32.7130    3.1725    7.9670 LP  0  0  0  0  0  0  0  0  0  0  0  0  # atno 5527 bound_to 3716
  -32.9659    1.6820    8.5844 LP  0  0  0  0  0  0  0  0  0  0  0  0  # atno 5528 bound_to 3716
  -32.0054    2.8248   12.1633 LP  0  0  0  0  0  0  0  0  0  0  0  0  # atno 5529 bound_to 3636
  -33.5451    2.4972   12.5977 LP  0  0  0  0  0  0  0  0  0  0  0  0  # atno 5530 bound_to 3636
  -17.5541    9.4104   22.6753 LP  0  0  0  0  0  0  0  0  0  0  0  0  # atno 5588 bound_to 3906
  -18.2184    8.0534   22.0557 LP  0  0  0  0  0  0  0  0  0  0  0  0  # atno 5589 bound_to 3906
  -16.0940    0.0002   19.7995 LP  0  0  0  0  0  0  0  0  0  0  0  0  # atno 5590 bound_to 3179
  -16.7625   -0.5606   21.1798 LP  0  0  0  0  0  0  0  0  0  0  0  0  # atno 5591 bound_to 3179
   -8.5800   -5.4677   11.4732 LP  0  0  0  0  0  0  0  0  0  0  0  0  # atno 5600 bound_to 5203
   -8.9816   -5.2918    9.9002 LP  0  0  0  0  0  0  0  0  0  0  0  0  # atno 5601 bound_to 5203
   -5.7173   -2.8406   13.1434 LP  0  0  0  0  0  0  0  0  0  0  0  0  # atno 5606 bound_to 597 
   -4.7878   -1.4987   13.1881 LP  0  0  0  0  0  0  0  0  0  0  0  0  # atno 5607 bound_to 597 
  -13.8982   -8.4976    8.6819 LP  0  0  0  0  0  0  0  0  0  0  0  0  # atno 5610 bound_to 1939
  -14.2087   -7.0929    7.9093 LP  0  0  0  0  0  0  0  0  0  0  0  0  # atno 5611 bound_to 1939
  -22.5765   -3.1592   15.7830 LP  0  0  0  0  0  0  0  0  0  0  0  0  # atno 5640 bound_to 3227
  -24.0247   -2.4048   15.7680 LP  0  0  0  0  0  0  0  0  0  0  0  0  # atno 5641 bound_to 3227
   -7.1361    2.0066   20.2011 LP  0  0  0  0  0  0  0  0  0  0  0  0  # atno 5648 bound_to 617 
   -7.4503    2.5939   21.6921 LP  0  0  0  0  0  0  0  0  0  0  0  0  # atno 5649 bound_to 617 
  -13.2348   -0.3400   34.9743 LP  0  0  0  0  0  0  0  0  0  0  0  0  # atno 5673 bound_to 3124
  -13.5738    0.5680   33.6601 LP  0  0  0  0  0  0  0  0  0  0  0  0  # atno 5674 bound_to 3124
  -18.4566    1.8406   32.7982 LP  0  0  0  0  0  0  0  0  0  0  0  0  # atno 5675 bound_to 3403
  -18.9610    1.2788   31.3503 LP  0  0  0  0  0  0  0  0  0  0  0  0  # atno 5676 bound_to 3403

> <Gold.Score>
     Fitness  S(hb_ext) S(vdw_ext)  S(hb_int)    S(int)      intcor
     45.14       2.93      33.37       0.00      -3.68      -0.76

> <Gold.Goldscore.Fitness>
45.1376

> <Gold.Goldscore.Internal.Vdw>
-3.7590

> <Gold.Goldscore.Internal.Torsion>
-0.6843

> <Gold.Goldscore.External.Vdw>
33.3744

> <Gold.Goldscore.Internal.HBond>
0.0000

> <Gold.Goldscore.External.HBond>
2.9261

> <Gold.Goldscore.Internal.Correction>
-0.7650

> <Gold.Goldscore.Hbonds>
donor molecule, donor type, donor heavy atom, donor atom, acceptor molecule, acceptor atom, score
      L1  H     8    22       P1  2900  0.49

> <Gold.Goldscore.Internal.Vdw.Weighted>
-3.7590

> <Gold.Goldscore.Internal.Torsion.Weighted>
-0.6843

> <Gold.Goldscore.External.Vdw.Weighted>
45.8898

> <Gold.Goldscore.Internal.HBond.Weighted>
0.0000

> <Gold.Goldscore.External.HBond.Weighted>
2.9261

> <Gold.Goldscore.Internal.Correction.Weighted>
-0.7650

> <Gold.Rescore>
     Score     S(PLP)   S(hbond)     S(cho)   S(metal)  DE(clash)   DE(tors)     intcor
     40.36     -37.55       1.77       0.00       0.00       0.00       1.25       ----

> <Gold.PLP.Fitness>
40.3616

> <Gold.PLP.PLP>
-37.5537

> <Gold.PLP.part.hbond>
-2.3768

> <Gold.PLP.part.metal>
0.0000

> <Gold.PLP.part.buried>
8.6958

> <Gold.PLP.part.nonpolar>
-45.4198

> <Gold.PLP.part.repulsive>
1.4872

> <Gold.PLP.ligand.clash>
0.0000

> <Gold.PLP.ligand.torsion>
1.2480

> <Gold.PLP.Chemscore.Hbond>
1.7680

> <Gold.PLP.Chemscore.CHOScore>
0.0000

> <Gold.PLP.Chemscore.Metal>
0.0000

> <Gold.Chemscore.Hbonds>
donor molecule, donor type, donor heavy atom, donor atom, acceptor molecule, acceptor atom, score
      L1  H     8    22       P1  2900  1.00

> <Gold.PLP.Chemscore.Internal.Correction>
   9.000000E+99

#       Name:                CT1002167954
#       Creating user name   hitesit
#       Creation time:       Sun Apr 16 22:50:44 2023


#       File generated by GOLD software.
#

@<TRIPOS>MOLECULE
CT1002167954|ligand_prepared|mol2|1|dock3
    29    30     1
SMALL
NO_CHARGES


@<TRIPOS>ATOM
      1 C1          -9.7436  -7.6199  17.1099 C.3            1 RES1               0.0000
      2 C2          -9.3587  -8.8722  17.9238 C.ar           1 RES1               0.0000
      3 C3         -11.2504  -7.4470  17.2767 C.2            1 RES1               0.0000
      4 C4          -8.9188  -6.4709  17.6793 C.2            1 RES1               0.0000
      5 C5          -9.4263  -7.7338  15.6006 C.3            1 RES1               0.0000
      6 C6          -9.1383 -10.0904  17.2880 C.ar           1 RES1               0.0000
      7 C7          -9.2178  -8.8243  19.3082 C.ar           1 RES1               0.0000
      8 N8         -11.6851  -6.4378  18.0845 N.am           1 RES1               0.0000
      9 O9         -12.0445  -8.2092  16.7392 O.2            1 RES1               0.0000
     10 N10         -9.5849  -5.4542  18.3119 N.am           1 RES1               0.0000
     11 O11         -7.6967  -6.4451  17.6004 O.2            1 RES1               0.0000
     12 C12         -9.5910  -6.4279  14.8393 C.3            1 RES1               0.0000
     13 C13         -8.7869 -11.2192  18.0096 C.ar           1 RES1               0.0000
     14 C14         -8.8666  -9.9544  20.0279 C.ar           1 RES1               0.0000
     15 C15        -10.9281  -5.4007  18.5673 C.2            1 RES1               0.0000
     16 C16         -8.6504 -11.1519  19.3798 C.ar           1 RES1               0.0000
     17 O17        -11.4463  -4.4785  19.1904 O.2            1 RES1               0.0000
     18 H18         -8.3934  -8.0836  15.4824 H              1 RES1               0.0000
     19 H19        -10.0884  -8.4873  15.1565 H              1 RES1               0.0000
     20 H20         -9.2434 -10.1631  16.2106 H              1 RES1               0.0000
     21 H21         -9.3841  -7.8933  19.8393 H              1 RES1               0.0000
     22 H22        -12.6633  -6.4559  18.3546 H              1 RES1               0.0000
     23 H23         -9.0279  -4.6639  18.6210 H              1 RES1               0.0000
     24 H24         -9.3562  -6.5634  13.7856 H              1 RES1               0.0000
     25 H25        -10.6136  -6.0638  14.9145 H              1 RES1               0.0000
     26 H26         -8.9286  -5.6625  15.2384 H              1 RES1               0.0000
     27 H27         -8.6192 -12.1595  17.4950 H              1 RES1               0.0000
     28 H28         -8.7609  -9.8970  21.1062 H              1 RES1               0.0000
     29 H29         -8.3748 -12.0362  19.9448 H              1 RES1               0.0000
@<TRIPOS>BOND
    1    1    2 1     
    2    1    3 1     
    3    1    4 1     
    4    1    5 1     
    5    2    6 ar    
    6    2    7 ar    
    7    3    8 1     
    8    3    9 2     
    9    4   10 1     
   10    4   11 2     
   11    5   12 1     
   12    5   18 1     
   13    5   19 1     
   14    6   13 ar    
   15    6   20 1     
   16    7   14 ar    
   17    7   21 1     
   18    8   15 1     
   19    8   22 1     
   20   10   15 1     
   21   10   23 1     
   22   12   24 1     
   23   12   25 1     
   24   12   26 1     
   25   13   16 ar    
   26   13   27 1     
   27   14   16 ar    
   28   14   28 1     
   29   15   17 2     
   30   16   29 1     
@<TRIPOS>SUBSTRUCTURE
      1 RES1           1
@<TRIPOS>SET
DONOR_HYDROGENS      STATIC     ATOMS    <user>   **** ""
2 22 23
ATOM$RED        STATIC     ATOMS    COLORGROUP SYSTEM
2 22 23
@<TRIPOS>COMMENT
> <Gold.Version>
2022.3.0

> <Gold.Id.Protein>
unknown|3ovv_clean|pdb

> <Gold.Protein.RotatedTorsions>
[ 3725 3716 3715 3713 ] final   14.39 input   59.99 | X-H torsion
[ 3645 3636 3635 3633 ] final  177.83 input   60.03 | X-H torsion
[ 3915 3906 3905 3903 ] final  -18.71 input   60.03 | X-H torsion
[ 3186 3179 3177 3174 ] final  -60.25 input   59.97 | X-H torsion
[ 5212 5203 5202 5200 ] final   75.25 input   59.98 | X-H torsion
[ 2635 2624 2623 2622 ] final  -51.61 input   60.00 | X-H torsion
[  602  597  595  592 ] final   89.97 input   59.96 | X-H torsion
[ 1943 1939 1938 1935 ] final  143.82 input   60.01 | X-H torsion
[ 3236 3227 3226 3224 ] final  -94.53 input   60.01 | X-H torsion
[  622  617  616  613 ] final -100.13 input   59.98 | X-H torsion
[ 3133 3124 3123 3122 ] final  -93.60 input   59.98 | X-H torsion
[ 3412 3403 3402 3400 ] final   94.59 input   59.99 | X-H torsion
[ 3134 3125 3123 3122 ] final   89.14 input   60.00 | X-H torsion

> <Gold.Protein.ActiveResidues>
 LEU49   GLY50   THR51   GLY52   SER53   PHE54   VAL79   LEU82   LYS83   GLN84  
 HIS87   THR88   GLY126  GLU127  MET128  PHE129  SER130  HIS131  LEU132  ARG133 
 ARG134  ILE135  GLY136  ARG137  ARG165  ASP166  LEU167  LYS168  PRO169  GLU170 
 ASN171  LEU173  ASP184  GLY186  PHE187  TRP196  TPO197  LEU198  CYS199  GLY200 
 THR201  PRO202  GLU203  TYR204  LEU205  ILE209  ILE210  TYR215  VAL226  LEU227 
 TYR229  GLU230  ALA233  GLY234  TYR235  PRO236  PRO237  PHE238  PHE239  ALA240 
 ASP241  GLN242  PRO243  ILE244  GLN245  ILE246  TYR247  ARG256  PHE257  PRO258 
 SER259  HIS260  ASN326  PHE327  ASP328  ASP329  TYR330 

> <Gold.Protein.RotatedAtoms>
   -5.5841   -1.4419   14.2784 H   0  0  0  0  0  0  0  0  0  0  0  0  # atno 602  bound_to 597 
   -7.2153    2.7376   20.8091 H   0  0  0  0  0  0  0  0  0  0  0  0  # atno 622  bound_to 617 
  -13.5419   -8.7921    8.2229 H   0  0  0  0  0  0  0  0  0  0  0  0  # atno 1943 bound_to 1939
  -14.9334   -0.6257   18.2864 H   0  0  0  0  0  0  0  0  0  0  0  0  # atno 2635 bound_to 2624
  -15.1614   -0.7955   19.9187 H   0  0  0  0  0  0  0  0  0  0  0  0  # atno 2636 bound_to 2624
  -13.8009   -1.4149   19.2028 H   0  0  0  0  0  0  0  0  0  0  0  0  # atno 2637 bound_to 2624
  -14.5301   -0.3272   33.6941 H   0  0  0  0  0  0  0  0  0  0  0  0  # atno 3133 bound_to 3124
  -16.5723    0.2550   34.4413 H   0  0  0  0  0  0  0  0  0  0  0  0  # atno 3134 bound_to 3125
  -15.7227    0.8540   20.6201 H   0  0  0  0  0  0  0  0  0  0  0  0  # atno 3186 bound_to 3179
  -24.2664   -2.6189   15.9715 H   0  0  0  0  0  0  0  0  0  0  0  0  # atno 3236 bound_to 3227
  -18.5062    0.8272   33.1105 H   0  0  0  0  0  0  0  0  0  0  0  0  # atno 3412 bound_to 3403
  -33.6497    2.3333   12.4394 H   0  0  0  0  0  0  0  0  0  0  0  0  # atno 3645 bound_to 3636
  -32.8753    2.7752    8.6090 H   0  0  0  0  0  0  0  0  0  0  0  0  # atno 3725 bound_to 3716
  -18.3421    7.7420   23.0187 H   0  0  0  0  0  0  0  0  0  0  0  0  # atno 3915 bound_to 3906
   -8.5672   -5.3901   11.5146 H   0  0  0  0  0  0  0  0  0  0  0  0  # atno 5212 bound_to 5203
  -32.8618    1.3029    7.9166 LP  0  0  0  0  0  0  0  0  0  0  0  0  # atno 5527 bound_to 3716
  -32.5651    2.6338    7.0180 LP  0  0  0  0  0  0  0  0  0  0  0  0  # atno 5528 bound_to 3716
  -32.6652    1.8631   11.2319 LP  0  0  0  0  0  0  0  0  0  0  0  0  # atno 5529 bound_to 3636
  -32.1323    2.9163   12.3604 LP  0  0  0  0  0  0  0  0  0  0  0  0  # atno 5530 bound_to 3636
  -17.6587    9.1431   23.4861 LP  0  0  0  0  0  0  0  0  0  0  0  0  # atno 5588 bound_to 3906
  -17.8582    8.8185   21.8982 LP  0  0  0  0  0  0  0  0  0  0  0  0  # atno 5589 bound_to 3906
  -16.4353   -0.4630   19.9823 LP  0  0  0  0  0  0  0  0  0  0  0  0  # atno 5590 bound_to 3179
  -16.5798   -0.1448   21.5775 LP  0  0  0  0  0  0  0  0  0  0  0  0  # atno 5591 bound_to 3179
   -8.9720   -5.3712    9.9386 LP  0  0  0  0  0  0  0  0  0  0  0  0  # atno 5600 bound_to 5203
   -8.7610   -3.9683   10.7473 LP  0  0  0  0  0  0  0  0  0  0  0  0  # atno 5601 bound_to 5203
   -5.9861   -2.8197   13.5118 LP  0  0  0  0  0  0  0  0  0  0  0  0  # atno 5606 bound_to 597 
   -4.8208   -1.8523   12.9013 LP  0  0  0  0  0  0  0  0  0  0  0  0  # atno 5607 bound_to 597 
  -14.3326   -7.3926    8.4766 LP  0  0  0  0  0  0  0  0  0  0  0  0  # atno 5610 bound_to 1939
  -13.5458   -7.6453    7.0682 LP  0  0  0  0  0  0  0  0  0  0  0  0  # atno 5611 bound_to 1939
  -23.4867   -3.9360   16.5243 LP  0  0  0  0  0  0  0  0  0  0  0  0  # atno 5640 bound_to 3227
  -22.6915   -2.8319   15.6213 LP  0  0  0  0  0  0  0  0  0  0  0  0  # atno 5641 bound_to 3227
   -7.6111    1.7017   22.0001 LP  0  0  0  0  0  0  0  0  0  0  0  0  # atno 5648 bound_to 617 
   -7.2920    1.1418   20.4997 LP  0  0  0  0  0  0  0  0  0  0  0  0  # atno 5649 bound_to 617 
  -13.6090   -0.6901   34.9854 LP  0  0  0  0  0  0  0  0  0  0  0  0  # atno 5673 bound_to 3124
  -13.2094    0.5653   34.0206 LP  0  0  0  0  0  0  0  0  0  0  0  0  # atno 5674 bound_to 3124
  -18.6552    2.0373   32.0329 LP  0  0  0  0  0  0  0  0  0  0  0  0  # atno 5675 bound_to 3403
  -18.9963    0.5020   31.5934 LP  0  0  0  0  0  0  0  0  0  0  0  0  # atno 5676 bound_to 3403

> <Gold.Score>
     Fitness  S(hb_ext) S(vdw_ext)  S(hb_int)    S(int)      intcor
     44.88       1.12      32.24       0.00      -0.56      -0.77

> <Gold.Goldscore.Fitness>
44.8819

> <Gold.Goldscore.Internal.Vdw>
-0.8282

> <Gold.Goldscore.Internal.Torsion>
-0.5046

> <Gold.Goldscore.External.Vdw>
32.2404

> <Gold.Goldscore.Internal.HBond>
0.0000

> <Gold.Goldscore.External.HBond>
1.1155

> <Gold.Goldscore.Internal.Correction>
-0.7686

> <Gold.Goldscore.Hbonds>
donor molecule, donor type, donor heavy atom, donor atom, acceptor molecule, acceptor atom, score
      L1  H     8    22       P1  2674  0.56

> <Gold.Goldscore.Internal.Vdw.Weighted>
-0.8282

> <Gold.Goldscore.Internal.Torsion.Weighted>
-0.5046

> <Gold.Goldscore.External.Vdw.Weighted>
44.3305

> <Gold.Goldscore.Internal.HBond.Weighted>
0.0000

> <Gold.Goldscore.External.HBond.Weighted>
1.1155

> <Gold.Goldscore.Internal.Correction.Weighted>
-0.7686

> <Gold.Rescore>
     Score     S(PLP)   S(hbond)     S(cho)   S(metal)  DE(clash)   DE(tors)     intcor
     41.37     -36.45       1.80       0.00       0.00       0.00       0.25       ----

> <Gold.PLP.Fitness>
41.3697

> <Gold.PLP.PLP>
-36.4524

> <Gold.PLP.part.hbond>
-3.5641

> <Gold.PLP.part.metal>
0.0000

> <Gold.PLP.part.buried>
3.1806

> <Gold.PLP.part.nonpolar>
-39.9311

> <Gold.PLP.part.repulsive>
3.4162

> <Gold.PLP.ligand.clash>
0.0000

> <Gold.PLP.ligand.torsion>
0.2470

> <Gold.PLP.Chemscore.Hbond>
1.8038

> <Gold.PLP.Chemscore.CHOScore>
0.0000

> <Gold.PLP.Chemscore.Metal>
0.0000

> <Gold.Chemscore.Hbonds>
donor molecule, donor type, donor heavy atom, donor atom, acceptor molecule, acceptor atom, score
      L1  H     8    22       P1  2674  1.00

> <Gold.PLP.Chemscore.Internal.Correction>
   9.000000E+99

#       Name:                CT1002167954
#       Creating user name   hitesit
#       Creation time:       Sun Apr 16 22:50:47 2023


#       File generated by GOLD software.
#

@<TRIPOS>MOLECULE
CT1002167954|ligand_prepared|mol2|1|dock5
    29    30     1
SMALL
NO_CHARGES


@<TRIPOS>ATOM
      1 C1          -9.0416  -7.3781  17.6287 C.3            1 RES1               0.0000
      2 C2          -9.1178  -8.8083  17.0564 C.ar           1 RES1               0.0000
      3 C3          -8.9391  -7.5278  19.1438 C.2            1 RES1               0.0000
      4 C4          -7.8239  -6.7251  16.9843 C.2            1 RES1               0.0000
      5 C5         -10.2783  -6.5083  17.3036 C.3            1 RES1               0.0000
      6 C6          -9.3946  -9.0185  15.7089 C.ar           1 RES1               0.0000
      7 C7          -8.9114  -9.9253  17.8616 C.ar           1 RES1               0.0000
      8 N8          -7.7287  -7.2828  19.7224 N.am           1 RES1               0.0000
      9 O9          -9.8955  -7.8935  19.8159 O.2            1 RES1               0.0000
     10 N10         -6.7683  -6.3956  17.7936 N.am           1 RES1               0.0000
     11 O11         -7.7622  -6.5080  15.7804 O.2            1 RES1               0.0000
     12 C12        -11.6013  -7.2419  17.4571 C.3            1 RES1               0.0000
     13 C13         -9.4597 -10.2988  15.1845 C.ar           1 RES1               0.0000
     14 C14         -8.9772 -11.2048  17.3353 C.ar           1 RES1               0.0000
     15 C15         -6.6531  -6.6728  19.1286 C.2            1 RES1               0.0000
     16 C16         -9.2507 -11.3926  15.9972 C.ar           1 RES1               0.0000
     17 O17         -5.6490  -6.3936  19.7774 O.2            1 RES1               0.0000
     18 H18        -10.2798  -5.6347  17.9671 H              1 RES1               0.0000
     19 H19        -10.1934  -6.1455  16.2718 H              1 RES1               0.0000
     20 H20         -9.5643  -8.1699  15.0545 H              1 RES1               0.0000
     21 H21         -8.6959  -9.8015  18.9175 H              1 RES1               0.0000
     22 H22         -7.6126  -7.5807  20.6858 H              1 RES1               0.0000
     23 H23         -5.9971  -5.8974  17.3608 H              1 RES1               0.0000
     24 H24        -12.4359  -6.5865  17.2171 H              1 RES1               0.0000
     25 H25        -11.6445  -8.1026  16.7930 H              1 RES1               0.0000
     26 H26        -11.7304  -7.5948  18.4782 H              1 RES1               0.0000
     27 H27         -9.6766 -10.4413  14.1310 H              1 RES1               0.0000
     28 H28         -8.8126 -12.0628  17.9787 H              1 RES1               0.0000
     29 H29         -9.3013 -12.3955  15.5861 H              1 RES1               0.0000
@<TRIPOS>BOND
    1    1    2 1     
    2    1    3 1     
    3    1    4 1     
    4    1    5 1     
    5    2    6 ar    
    6    2    7 ar    
    7    3    8 1     
    8    3    9 2     
    9    4   10 1     
   10    4   11 2     
   11    5   12 1     
   12    5   18 1     
   13    5   19 1     
   14    6   13 ar    
   15    6   20 1     
   16    7   14 ar    
   17    7   21 1     
   18    8   15 1     
   19    8   22 1     
   20   10   15 1     
   21   10   23 1     
   22   12   24 1     
   23   12   25 1     
   24   12   26 1     
   25   13   16 ar    
   26   13   27 1     
   27   14   16 ar    
   28   14   28 1     
   29   15   17 2     
   30   16   29 1     
@<TRIPOS>SUBSTRUCTURE
      1 RES1           1
@<TRIPOS>SET
DONOR_HYDROGENS      STATIC     ATOMS    <user>   **** ""
2 22 23
ATOM$RED        STATIC     ATOMS    COLORGROUP SYSTEM
2 22 23
@<TRIPOS>COMMENT
> <Gold.Version>
2022.3.0

> <Gold.Id.Protein>
unknown|3ovv_clean|pdb

> <Gold.Protein.RotatedTorsions>
[ 3725 3716 3715 3713 ] final  111.62 input   59.99 | X-H torsion
[ 3645 3636 3635 3633 ] final    6.91 input   60.03 | X-H torsion
[ 3915 3906 3905 3903 ] final  127.99 input   60.03 | X-H torsion
[ 3186 3179 3177 3174 ] final   35.18 input   59.97 | X-H torsion
[ 5212 5203 5202 5200 ] final   57.39 input   59.98 | X-H torsion
[ 2635 2624 2623 2622 ] final -128.84 input   60.00 | X-H torsion
[  602  597  595  592 ] final  101.93 input   59.96 | X-H torsion
[ 1943 1939 1938 1935 ] final  -23.99 input   60.01 | X-H torsion
[ 3236 3227 3226 3224 ] final  122.95 input   60.01 | X-H torsion
[  622  617  616  613 ] final  -76.55 input   59.98 | X-H torsion
[ 3133 3124 3123 3122 ] final -145.41 input   59.98 | X-H torsion
[ 3412 3403 3402 3400 ] final  -19.15 input   59.99 | X-H torsion
[ 3134 3125 3123 3122 ] final -127.46 input   60.00 | X-H torsion

> <Gold.Protein.ActiveResidues>
 LEU49   GLY50   THR51   GLY52   SER53   PHE54   VAL79   LEU82   LYS83   GLN84  
 HIS87   THR88   GLY126  GLU127  MET128  PHE129  SER130  HIS131  LEU132  ARG133 
 ARG134  ILE135  GLY136  ARG137  ARG165  ASP166  LEU167  LYS168  PRO169  GLU170 
 ASN171  LEU173  ASP184  GLY186  PHE187  TRP196  TPO197  LEU198  CYS199  GLY200 
 THR201  PRO202  GLU203  TYR204  LEU205  ILE209  ILE210  TYR215  VAL226  LEU227 
 TYR229  GLU230  ALA233  GLY234  TYR235  PRO236  PRO237  PHE238  PHE239  ALA240 
 ASP241  GLN242  PRO243  ILE244  GLN245  ILE246  TYR247  ARG256  PHE257  PRO258 
 SER259  HIS260  ASN326  PHE327  ASP328  ASP329  TYR330 

> <Gold.Protein.RotatedAtoms>
   -5.4431   -1.3399   14.1904 H   0  0  0  0  0  0  0  0  0  0  0  0  # atno 602  bound_to 597 
   -7.1551    2.5360   20.4895 H   0  0  0  0  0  0  0  0  0  0  0  0  # atno 622  bound_to 617 
  -14.1616   -7.0880    7.8000 H   0  0  0  0  0  0  0  0  0  0  0  0  # atno 1943 bound_to 1939
  -13.9328   -1.2233   18.5453 H   0  0  0  0  0  0  0  0  0  0  0  0  # atno 2635 bound_to 2624
  -15.3865   -0.4677   18.7926 H   0  0  0  0  0  0  0  0  0  0  0  0  # atno 2636 bound_to 2624
  -14.5764   -1.1452   20.0701 H   0  0  0  0  0  0  0  0  0  0  0  0  # atno 2637 bound_to 2624
  -14.4260   -0.8251   34.3345 H   0  0  0  0  0  0  0  0  0  0  0  0  # atno 3133 bound_to 3124
  -16.5571    0.3308   36.2178 H   0  0  0  0  0  0  0  0  0  0  0  0  # atno 3134 bound_to 3125
  -16.3781    0.1934   21.6469 H   0  0  0  0  0  0  0  0  0  0  0  0  # atno 3186 bound_to 3179
  -23.1391   -3.9157   16.4091 H   0  0  0  0  0  0  0  0  0  0  0  0  # atno 3236 bound_to 3227
  -18.6270    2.0456   32.1315 H   0  0  0  0  0  0  0  0  0  0  0  0  # atno 3412 bound_to 3403
  -32.0430    2.3097   11.4888 H   0  0  0  0  0  0  0  0  0  0  0  0  # atno 3645 bound_to 3636
  -32.5836    2.9277    7.2437 H   0  0  0  0  0  0  0  0  0  0  0  0  # atno 3725 bound_to 3716
  -17.6947    9.1536   22.1201 H   0  0  0  0  0  0  0  0  0  0  0  0  # atno 3915 bound_to 3906
   -8.6138   -5.6136   11.3349 H   0  0  0  0  0  0  0  0  0  0  0  0  # atno 5212 bound_to 5203
  -32.9363    2.4398    8.7552 LP  0  0  0  0  0  0  0  0  0  0  0  0  # atno 5527 bound_to 3716
  -32.7845    1.3433    7.5547 LP  0  0  0  0  0  0  0  0  0  0  0  0  # atno 5528 bound_to 3716
  -32.8298    2.9265   12.7730 LP  0  0  0  0  0  0  0  0  0  0  0  0  # atno 5529 bound_to 3636
  -33.5852    1.8766   11.7761 LP  0  0  0  0  0  0  0  0  0  0  0  0  # atno 5530 bound_to 3636
  -18.3530    7.7397   22.5850 LP  0  0  0  0  0  0  0  0  0  0  0  0  # atno 5588 bound_to 3906
  -17.8157    8.8006   23.7042 LP  0  0  0  0  0  0  0  0  0  0  0  0  # atno 5589 bound_to 3906
  -15.7303    0.7115   20.2466 LP  0  0  0  0  0  0  0  0  0  0  0  0  # atno 5590 bound_to 3179
  -16.6250   -0.6542   20.2796 LP  0  0  0  0  0  0  0  0  0  0  0  0  # atno 5591 bound_to 3179
   -8.9963   -5.0968    9.8401 LP  0  0  0  0  0  0  0  0  0  0  0  0  # atno 5600 bound_to 5203
   -8.6897   -4.0176   11.0267 LP  0  0  0  0  0  0  0  0  0  0  0  0  # atno 5601 bound_to 5203
   -6.0664   -2.7530   13.6782 LP  0  0  0  0  0  0  0  0  0  0  0  0  # atno 5606 bound_to 597 
   -4.8826   -2.0218   12.8235 LP  0  0  0  0  0  0  0  0  0  0  0  0  # atno 5607 bound_to 597 
  -13.2915   -8.3449    7.2418 LP  0  0  0  0  0  0  0  0  0  0  0  0  # atno 5610 bound_to 1939
  -13.9629   -8.4094    8.7289 LP  0  0  0  0  0  0  0  0  0  0  0  0  # atno 5611 bound_to 1939
  -22.9257   -2.5626   15.5305 LP  0  0  0  0  0  0  0  0  0  0  0  0  # atno 5640 bound_to 3227
  -24.3881   -2.8992   16.1745 LP  0  0  0  0  0  0  0  0  0  0  0  0  # atno 5641 bound_to 3227
   -7.5738    2.0852   21.9960 LP  0  0  0  0  0  0  0  0  0  0  0  0  # atno 5648 bound_to 617 
   -7.3899    0.9613   20.8257 LP  0  0  0  0  0  0  0  0  0  0  0  0  # atno 5649 bound_to 617 
  -13.0748   -0.0783   34.8484 LP  0  0  0  0  0  0  0  0  0  0  0  0  # atno 5673 bound_to 3124
  -13.8484    0.4549   33.5128 LP  0  0  0  0  0  0  0  0  0  0  0  0  # atno 5674 bound_to 3124
  -19.0043    0.5819   31.5292 LP  0  0  0  0  0  0  0  0  0  0  0  0  # atno 5675 bound_to 3403
  -18.5256    0.7298   33.0834 LP  0  0  0  0  0  0  0  0  0  0  0  0  # atno 5676 bound_to 3403

> <Gold.Score>
     Fitness  S(hb_ext) S(vdw_ext)  S(hb_int)    S(int)      intcor
     44.02       0.00      34.47       0.00      -3.38      -0.77

> <Gold.Goldscore.Fitness>
44.0167

> <Gold.Goldscore.Internal.Vdw>
-3.3159

> <Gold.Goldscore.Internal.Torsion>
-0.8287

> <Gold.Goldscore.External.Vdw>
34.4674

> <Gold.Goldscore.Internal.HBond>
0.0000

> <Gold.Goldscore.External.HBond>
0.0000

> <Gold.Goldscore.Internal.Correction>
-0.7686

> <Gold.Goldscore.Internal.Vdw.Weighted>
-3.3159

> <Gold.Goldscore.Internal.Torsion.Weighted>
-0.8287

> <Gold.Goldscore.External.Vdw.Weighted>
47.3926

> <Gold.Goldscore.Internal.HBond.Weighted>
0.0000

> <Gold.Goldscore.External.HBond.Weighted>
0.0000

> <Gold.Goldscore.Internal.Correction.Weighted>
-0.7686

> <Gold.Rescore>
     Score     S(PLP)   S(hbond)     S(cho)   S(metal)  DE(clash)   DE(tors)     intcor
     48.00     -46.89       0.98       0.00       0.00       0.00       0.91       ----

> <Gold.PLP.Fitness>
47.9959

> <Gold.PLP.PLP>
-46.8872

> <Gold.PLP.part.hbond>
-1.0000

> <Gold.PLP.part.metal>
0.0000

> <Gold.PLP.part.buried>
-2.2646

> <Gold.PLP.part.nonpolar>
-45.2251

> <Gold.PLP.part.repulsive>
0.5103

> <Gold.PLP.ligand.clash>
0.0000

> <Gold.PLP.ligand.torsion>
0.9097

> <Gold.PLP.Chemscore.Hbond>
0.9760

> <Gold.PLP.Chemscore.CHOScore>
0.0000

> <Gold.PLP.Chemscore.Metal>
0.0000

> <Gold.PLP.Chemscore.Internal.Correction>
   9.000000E+99

#       Name:                CT1002167954
#       Creating user name   hitesit
#       Creation time:       Sun Apr 16 22:50:48 2023


#       File generated by GOLD software.
#

@<TRIPOS>MOLECULE
CT1002167954|ligand_prepared|mol2|1|dock6
    29    30     1
SMALL
NO_CHARGES


@<TRIPOS>ATOM
      1 C1          -9.3888  -7.6090  17.4210 C.3            1 RES1               0.0000
      2 C2          -8.1619  -6.8764  18.0014 C.ar           1 RES1               0.0000
      3 C3          -9.2087  -7.6121  15.9058 C.2            1 RES1               0.0000
      4 C4          -9.3933  -8.9980  18.0498 C.2            1 RES1               0.0000
      5 C5         -10.7375  -6.9295  17.7539 C.3            1 RES1               0.0000
      6 C6          -8.1627  -6.4267  19.3184 C.ar           1 RES1               0.0000
      7 C7          -7.0231  -6.6458  17.2343 C.ar           1 RES1               0.0000
      8 N8          -8.8565  -8.7891  15.3138 N.am           1 RES1               0.0000
      9 O9          -9.3351  -6.5884  15.2452 O.2            1 RES1               0.0000
     10 N10         -9.1884 -10.0754  17.2282 N.am           1 RES1               0.0000
     11 O11         -9.5557  -9.1680  19.2519 O.2            1 RES1               0.0000
     12 C12        -11.9302  -7.5557  17.0486 C.3            1 RES1               0.0000
     13 C13         -7.0638  -5.7728  19.8503 C.ar           1 RES1               0.0000
     14 C14         -5.9252  -5.9914  17.7681 C.ar           1 RES1               0.0000
     15 C15         -8.8897 -10.0318  15.8936 C.2            1 RES1               0.0000
     16 C16         -5.9442  -5.5550  19.0758 C.ar           1 RES1               0.0000
     17 O17         -8.6646 -11.0420  15.2334 O.2            1 RES1               0.0000
     18 H18        -10.9010  -6.9813  18.8374 H              1 RES1               0.0000
     19 H19        -10.6779  -5.8705  17.4740 H              1 RES1               0.0000
     20 H20         -9.0357  -6.5868  19.9424 H              1 RES1               0.0000
     21 H21         -6.9861  -6.9793  16.2028 H              1 RES1               0.0000
     22 H22         -8.5390  -8.7408  14.3509 H              1 RES1               0.0000
     23 H23         -9.2659 -10.9951  17.6506 H              1 RES1               0.0000
     24 H24        -12.8506  -7.0415  17.3169 H              1 RES1               0.0000
     25 H25        -11.8129  -7.4990  15.9684 H              1 RES1               0.0000
     26 H26        -12.0346  -8.6032  17.3237 H              1 RES1               0.0000
     27 H27         -7.0843  -5.4301  20.8796 H              1 RES1               0.0000
     28 H28         -5.0465  -5.8216  17.1547 H              1 RES1               0.0000
     29 H29         -5.0833  -5.0430  19.4928 H              1 RES1               0.0000
@<TRIPOS>BOND
    1    1    2 1     
    2    1    3 1     
    3    1    4 1     
    4    1    5 1     
    5    2    6 ar    
    6    2    7 ar    
    7    3    8 1     
    8    3    9 2     
    9    4   10 1     
   10    4   11 2     
   11    5   12 1     
   12    5   18 1     
   13    5   19 1     
   14    6   13 ar    
   15    6   20 1     
   16    7   14 ar    
   17    7   21 1     
   18    8   15 1     
   19    8   22 1     
   20   10   15 1     
   21   10   23 1     
   22   12   24 1     
   23   12   25 1     
   24   12   26 1     
   25   13   16 ar    
   26   13   27 1     
   27   14   16 ar    
   28   14   28 1     
   29   15   17 2     
   30   16   29 1     
@<TRIPOS>SUBSTRUCTURE
      1 RES1           1
@<TRIPOS>SET
DONOR_HYDROGENS      STATIC     ATOMS    <user>   **** ""
2 22 23
ATOM$RED        STATIC     ATOMS    COLORGROUP SYSTEM
2 22 23
@<TRIPOS>COMMENT
> <Gold.Version>
2022.3.0

> <Gold.Id.Protein>
unknown|3ovv_clean|pdb

> <Gold.Protein.RotatedTorsions>
[ 3725 3716 3715 3713 ] final -144.37 input   59.99 | X-H torsion
[ 3645 3636 3635 3633 ] final  -71.96 input   60.03 | X-H torsion
[ 3915 3906 3905 3903 ] final  -35.64 input   60.03 | X-H torsion
[ 3186 3179 3177 3174 ] final    4.47 input   59.97 | X-H torsion
[ 5212 5203 5202 5200 ] final   76.81 input   59.98 | X-H torsion
[ 2635 2624 2623 2622 ] final -177.06 input   60.00 | X-H torsion
[  602  597  595  592 ] final  -27.02 input   59.96 | X-H torsion
[ 1943 1939 1938 1935 ] final   40.62 input   60.01 | X-H torsion
[ 3236 3227 3226 3224 ] final   -0.86 input   60.01 | X-H torsion
[  622  617  616  613 ] final -105.69 input   59.98 | X-H torsion
[ 3133 3124 3123 3122 ] final   54.40 input   59.98 | X-H torsion
[ 3412 3403 3402 3400 ] final  -81.50 input   59.99 | X-H torsion
[ 3134 3125 3123 3122 ] final  -62.54 input   60.00 | X-H torsion

> <Gold.Protein.ActiveResidues>
 LEU49   GLY50   THR51   GLY52   SER53   PHE54   VAL79   LEU82   LYS83   GLN84  
 HIS87   THR88   GLY126  GLU127  MET128  PHE129  SER130  HIS131  LEU132  ARG133 
 ARG134  ILE135  GLY136  ARG137  ARG165  ASP166  LEU167  LYS168  PRO169  GLU170 
 ASN171  LEU173  ASP184  GLY186  PHE187  TRP196  TPO197  LEU198  CYS199  GLY200 
 THR201  PRO202  GLU203  TYR204  LEU205  ILE209  ILE210  TYR215  VAL226  LEU227 
 TYR229  GLU230  ALA233  GLY234  TYR235  PRO236  PRO237  PHE238  PHE239  ALA240 
 ASP241  GLN242  PRO243  ILE244  GLN245  ILE246  TYR247  ARG256  PHE257  PRO258 
 SER259  HIS260  ASN326  PHE327  ASP328  ASP329  TYR330 

> <Gold.Protein.RotatedAtoms>
   -6.0033   -2.8015   13.5550 H   0  0  0  0  0  0  0  0  0  0  0  0  # atno 602  bound_to 597 
   -7.2337    2.7646   20.8939 H   0  0  0  0  0  0  0  0  0  0  0  0  # atno 622  bound_to 617 
  -14.3069   -7.6115    8.6405 H   0  0  0  0  0  0  0  0  0  0  0  0  # atno 1943 bound_to 1939
  -13.8175   -1.4220   19.2922 H   0  0  0  0  0  0  0  0  0  0  0  0  # atno 2635 bound_to 2624
  -14.8573   -0.6608   18.2507 H   0  0  0  0  0  0  0  0  0  0  0  0  # atno 2636 bound_to 2624
  -15.2210   -0.7534   19.8652 H   0  0  0  0  0  0  0  0  0  0  0  0  # atno 2637 bound_to 2624
  -13.0329    0.3818   34.3973 H   0  0  0  0  0  0  0  0  0  0  0  0  # atno 3133 bound_to 3124
  -16.7737    1.2703   35.9334 H   0  0  0  0  0  0  0  0  0  0  0  0  # atno 3134 bound_to 3125
  -16.0975    0.5781   21.5081 H   0  0  0  0  0  0  0  0  0  0  0  0  # atno 3186 bound_to 3179
  -22.9780   -2.5281   15.5276 H   0  0  0  0  0  0  0  0  0  0  0  0  # atno 3236 bound_to 3227
  -18.9198    1.4752   31.4049 H   0  0  0  0  0  0  0  0  0  0  0  0  # atno 3412 bound_to 3403
  -32.2426    2.9486   12.4723 H   0  0  0  0  0  0  0  0  0  0  0  0  # atno 3645 bound_to 3636
  -32.7258    1.4619    7.3292 H   0  0  0  0  0  0  0  0  0  0  0  0  # atno 3725 bound_to 3716
  -18.2920    7.8320   23.2746 H   0  0  0  0  0  0  0  0  0  0  0  0  # atno 3915 bound_to 3906
   -8.5639   -5.3680   11.5270 H   0  0  0  0  0  0  0  0  0  0  0  0  # atno 5212 bound_to 5203
  -32.6160    3.0805    7.4533 LP  0  0  0  0  0  0  0  0  0  0  0  0  # atno 5527 bound_to 3716
  -32.9615    2.1792    8.7705 LP  0  0  0  0  0  0  0  0  0  0  0  0  # atno 5528 bound_to 3716
  -33.6963    2.2323   12.3238 LP  0  0  0  0  0  0  0  0  0  0  0  0  # atno 5529 bound_to 3636
  -32.5178    1.9275   11.2353 LP  0  0  0  0  0  0  0  0  0  0  0  0  # atno 5530 bound_to 3636
  -17.5899    9.3002   23.2677 LP  0  0  0  0  0  0  0  0  0  0  0  0  # atno 5588 bound_to 3906
  -17.9774    8.5708   21.8590 LP  0  0  0  0  0  0  0  0  0  0  0  0  # atno 5589 bound_to 3906
  -15.8754    0.3736   19.9088 LP  0  0  0  0  0  0  0  0  0  0  0  0  # atno 5590 bound_to 3179
  -16.7623   -0.7037   20.7571 LP  0  0  0  0  0  0  0  0  0  0  0  0  # atno 5591 bound_to 3179
   -8.9689   -5.3935    9.9511 LP  0  0  0  0  0  0  0  0  0  0  0  0  # atno 5600 bound_to 5203
   -8.7674   -3.9683   10.7223 LP  0  0  0  0  0  0  0  0  0  0  0  0  # atno 5601 bound_to 5203
   -4.8338   -1.8945   12.8788 LP  0  0  0  0  0  0  0  0  0  0  0  0  # atno 5606 bound_to 597 
   -5.5509   -1.4080   14.2629 LP  0  0  0  0  0  0  0  0  0  0  0  0  # atno 5607 bound_to 597 
  -13.6894   -7.4238    7.1466 LP  0  0  0  0  0  0  0  0  0  0  0  0  # atno 5610 bound_to 1939
  -13.4186   -8.8032    7.9776 LP  0  0  0  0  0  0  0  0  0  0  0  0  # atno 5611 bound_to 1939
  -24.3942   -2.9519   16.2080 LP  0  0  0  0  0  0  0  0  0  0  0  0  # atno 5640 bound_to 3227
  -23.0818   -3.9075   16.3848 LP  0  0  0  0  0  0  0  0  0  0  0  0  # atno 5641 bound_to 3227
   -7.6142    1.6128   21.9787 LP  0  0  0  0  0  0  0  0  0  0  0  0  # atno 5648 bound_to 617 
   -7.2703    1.2035   20.4357 LP  0  0  0  0  0  0  0  0  0  0  0  0  # atno 5649 bound_to 617 
  -14.3378    0.0310   33.4907 LP  0  0  0  0  0  0  0  0  0  0  0  0  # atno 5673 bound_to 3124
  -13.9884   -0.8698   34.8072 LP  0  0  0  0  0  0  0  0  0  0  0  0  # atno 5674 bound_to 3124
  -18.8003    0.1948   32.4018 LP  0  0  0  0  0  0  0  0  0  0  0  0  # atno 5675 bound_to 3403
  -18.4345    1.6915   32.9428 LP  0  0  0  0  0  0  0  0  0  0  0  0  # atno 5676 bound_to 3403

> <Gold.Score>
     Fitness  S(hb_ext) S(vdw_ext)  S(hb_int)    S(int)      intcor
     42.81       0.07      31.99       0.00      -1.25      -0.76

> <Gold.Goldscore.Fitness>
42.8099

> <Gold.Goldscore.Internal.Vdw>
-1.5691

> <Gold.Goldscore.Internal.Torsion>
-0.4448

> <Gold.Goldscore.External.Vdw>
31.9921

> <Gold.Goldscore.Internal.HBond>
0.0000

> <Gold.Goldscore.External.HBond>
0.0698

> <Gold.Goldscore.Internal.Correction>
-0.7650

> <Gold.Goldscore.Hbonds>
donor molecule, donor type, donor heavy atom, donor atom, acceptor molecule, acceptor atom, score
      L1  H     8    22       P1   568  0.03

> <Gold.Goldscore.Internal.Vdw.Weighted>
-1.5691

> <Gold.Goldscore.Internal.Torsion.Weighted>
-0.4448

> <Gold.Goldscore.External.Vdw.Weighted>
43.9891

> <Gold.Goldscore.Internal.HBond.Weighted>
0.0000

> <Gold.Goldscore.External.HBond.Weighted>
0.0698

> <Gold.Goldscore.Internal.Correction.Weighted>
-0.7650

> <Gold.Rescore>
     Score     S(PLP)   S(hbond)     S(cho)   S(metal)  DE(clash)   DE(tors)     intcor
     37.48     -39.09       0.00       0.00       0.00       0.00       0.81       ----

> <Gold.PLP.Fitness>
37.4762

> <Gold.PLP.PLP>
-39.0936

> <Gold.PLP.part.hbond>
0.0000

> <Gold.PLP.part.metal>
0.0000

> <Gold.PLP.part.buried>
-3.7207

> <Gold.PLP.part.nonpolar>
-35.6431

> <Gold.PLP.part.repulsive>
0.3504

> <Gold.PLP.ligand.clash>
0.0000

> <Gold.PLP.ligand.torsion>
0.8087

> <Gold.PLP.Chemscore.Hbond>
0.0000

> <Gold.PLP.Chemscore.CHOScore>
0.0000

> <Gold.PLP.Chemscore.Metal>
0.0000

> <Gold.PLP.Chemscore.Internal.Correction>
   9.000000E+99

#       Name:                CT1002167954
#       Creating user name   hitesit
#       Creation time:       Sun Apr 16 22:50:52 2023


#       File generated by GOLD software.
#

@<TRIPOS>MOLECULE
CT1002167954|ligand_prepared|mol2|1|dock9
    29    30     1
SMALL
NO_CHARGES


@<TRIPOS>ATOM
      1 C1          -9.2688  -7.5041  17.6486 C.3            1 RES1               0.0000
      2 C2          -9.1779  -8.9064  17.0128 C.ar           1 RES1               0.0000
      3 C3          -8.8362  -6.5156  16.5697 C.2            1 RES1               0.0000
      4 C4         -10.7141  -7.3350  18.1038 C.2            1 RES1               0.0000
      5 C5          -8.3545  -7.3167  18.8816 C.3            1 RES1               0.0000
      6 C6          -9.1337 -10.0451  17.8116 C.ar           1 RES1               0.0000
      7 C7          -9.1403  -9.0770  15.6314 C.ar           1 RES1               0.0000
      8 N8          -9.8059  -5.7594  15.9801 N.am           1 RES1               0.0000
      9 O9          -7.6674  -6.4293  16.2138 O.2            1 RES1               0.0000
     10 N10        -11.4751  -6.3792  17.4832 N.am           1 RES1               0.0000
     11 O11        -11.2057  -8.0321  18.9829 O.2            1 RES1               0.0000
     12 C12         -8.2858  -5.8824  19.3817 C.3            1 RES1               0.0000
     13 C13         -9.0575 -11.3088  17.2498 C.ar           1 RES1               0.0000
     14 C14         -9.0639 -10.3417  15.0718 C.ar           1 RES1               0.0000
     15 C15        -11.0956  -5.6047  16.4210 C.2            1 RES1               0.0000
     16 C16         -9.0230 -11.4580  15.8798 C.ar           1 RES1               0.0000
     17 O17        -11.8549  -4.8050  15.8814 O.2            1 RES1               0.0000
     18 H18         -8.7213  -7.9566  19.6937 H              1 RES1               0.0000
     19 H19         -7.3415  -7.6496  18.6239 H              1 RES1               0.0000
     20 H20         -9.1574  -9.9472  18.8918 H              1 RES1               0.0000
     21 H21         -9.1702  -8.2130  14.9763 H              1 RES1               0.0000
     22 H22         -9.5483  -5.2630  15.1330 H              1 RES1               0.0000
     23 H23        -12.4112  -6.2313  17.8469 H              1 RES1               0.0000
     24 H24         -7.6314  -5.8066  20.2475 H              1 RES1               0.0000
     25 H25         -7.9012  -5.2219  18.6074 H              1 RES1               0.0000
     26 H26         -9.2728  -5.5270  19.6708 H              1 RES1               0.0000
     27 H27         -9.0242 -12.1841  17.8901 H              1 RES1               0.0000
     28 H28         -9.0363 -10.4543  13.9930 H              1 RES1               0.0000
     29 H29         -8.9638 -12.4481  15.4399 H              1 RES1               0.0000
@<TRIPOS>BOND
    1    1    2 1     
    2    1    3 1     
    3    1    4 1     
    4    1    5 1     
    5    2    6 ar    
    6    2    7 ar    
    7    3    8 1     
    8    3    9 2     
    9    4   10 1     
   10    4   11 2     
   11    5   12 1     
   12    5   18 1     
   13    5   19 1     
   14    6   13 ar    
   15    6   20 1     
   16    7   14 ar    
   17    7   21 1     
   18    8   15 1     
   19    8   22 1     
   20   10   15 1     
   21   10   23 1     
   22   12   24 1     
   23   12   25 1     
   24   12   26 1     
   25   13   16 ar    
   26   13   27 1     
   27   14   16 ar    
   28   14   28 1     
   29   15   17 2     
   30   16   29 1     
@<TRIPOS>SUBSTRUCTURE
      1 RES1           1
@<TRIPOS>SET
DONOR_HYDROGENS      STATIC     ATOMS    <user>   **** ""
2 22 23
ATOM$RED        STATIC     ATOMS    COLORGROUP SYSTEM
2 22 23
@<TRIPOS>COMMENT
> <Gold.Version>
2022.3.0

> <Gold.Id.Protein>
unknown|3ovv_clean|pdb

> <Gold.Protein.RotatedTorsions>
[ 3725 3716 3715 3713 ] final  -52.47 input   59.99 | X-H torsion
[ 3645 3636 3635 3633 ] final  -50.60 input   60.03 | X-H torsion
[ 3915 3906 3905 3903 ] final  109.62 input   60.03 | X-H torsion
[ 3186 3179 3177 3174 ] final  156.58 input   59.97 | X-H torsion
[ 5212 5203 5202 5200 ] final  122.26 input   59.98 | X-H torsion
[ 2635 2624 2623 2622 ] final  147.15 input   60.00 | X-H torsion
[  602  597  595  592 ] final   39.79 input   59.96 | X-H torsion
[ 1943 1939 1938 1935 ] final  -50.71 input   60.01 | X-H torsion
[ 3236 3227 3226 3224 ] final -109.17 input   60.01 | X-H torsion
[  622  617  616  613 ] final  -41.54 input   59.98 | X-H torsion
[ 3133 3124 3123 3122 ] final  140.85 input   59.98 | X-H torsion
[ 3412 3403 3402 3400 ] final   77.94 input   59.99 | X-H torsion
[ 3134 3125 3123 3122 ] final   80.12 input   60.00 | X-H torsion

> <Gold.Protein.ActiveResidues>
 LEU49   GLY50   THR51   GLY52   SER53   PHE54   VAL79   LEU82   LYS83   GLN84  
 HIS87   THR88   GLY126  GLU127  MET128  PHE129  SER130  HIS131  LEU132  ARG133 
 ARG134  ILE135  GLY136  ARG137  ARG165  ASP166  LEU167  LYS168  PRO169  GLU170 
 ASN171  LEU173  ASP184  GLY186  PHE187  TRP196  TPO197  LEU198  CYS199  GLY200 
 THR201  PRO202  GLU203  TYR204  LEU205  ILE209  ILE210  TYR215  VAL226  LEU227 
 TYR229  GLU230  ALA233  GLY234  TYR235  PRO236  PRO237  PHE238  PHE239  ALA240 
 ASP241  GLN242  PRO243  ILE244  GLN245  ILE246  TYR247  ARG256  PHE257  PRO258 
 SER259  HIS260  ASN326  PHE327  ASP328  ASP329  TYR330 

> <Gold.Protein.RotatedAtoms>
   -6.0537   -2.0819   14.2911 H   0  0  0  0  0  0  0  0  0  0  0  0  # atno 602  bound_to 597 
   -7.1337    2.0445   20.2155 H   0  0  0  0  0  0  0  0  0  0  0  0  # atno 622  bound_to 617 
  -13.9507   -7.1630    7.4298 H   0  0  0  0  0  0  0  0  0  0  0  0  # atno 1943 bound_to 1939
  -14.0940   -1.3632   19.8076 H   0  0  0  0  0  0  0  0  0  0  0  0  # atno 2635 bound_to 2624
  -14.3407   -0.9404   18.2246 H   0  0  0  0  0  0  0  0  0  0  0  0  # atno 2636 bound_to 2624
  -15.4612   -0.5326   19.3759 H   0  0  0  0  0  0  0  0  0  0  0  0  # atno 2637 bound_to 2624
  -13.5393   -0.6324   34.9966 H   0  0  0  0  0  0  0  0  0  0  0  0  # atno 3133 bound_to 3124
  -16.6041    0.3930   34.4005 H   0  0  0  0  0  0  0  0  0  0  0  0  # atno 3134 bound_to 3125
  -16.6151   -0.6407   20.2627 H   0  0  0  0  0  0  0  0  0  0  0  0  # atno 3186 bound_to 3179
  -24.3562   -2.7952   16.1045 H   0  0  0  0  0  0  0  0  0  0  0  0  # atno 3236 bound_to 3227
  -18.4592    1.0918   33.1465 H   0  0  0  0  0  0  0  0  0  0  0  0  # atno 3412 bound_to 3403
  -32.0359    2.8452   12.2134 H   0  0  0  0  0  0  0  0  0  0  0  0  # atno 3645 bound_to 3636
  -32.9653    1.7479    8.6218 H   0  0  0  0  0  0  0  0  0  0  0  0  # atno 3725 bound_to 3716
  -17.8051    8.9320   21.9526 H   0  0  0  0  0  0  0  0  0  0  0  0  # atno 3915 bound_to 3906
   -8.5417   -4.6493   11.6057 H   0  0  0  0  0  0  0  0  0  0  0  0  # atno 5212 bound_to 5203
  -32.6387    1.7937    7.0286 LP  0  0  0  0  0  0  0  0  0  0  0  0  # atno 5527 bound_to 3716
  -32.6975    3.1778    7.8931 LP  0  0  0  0  0  0  0  0  0  0  0  0  # atno 5528 bound_to 3716
  -33.5775    2.4579   12.5627 LP  0  0  0  0  0  0  0  0  0  0  0  0  # atno 5529 bound_to 3636
  -32.8447    1.8061   11.2570 LP  0  0  0  0  0  0  0  0  0  0  0  0  # atno 5530 bound_to 3636
  -18.3553    7.7170   22.8851 LP  0  0  0  0  0  0  0  0  0  0  0  0  # atno 5588 bound_to 3906
  -17.7023    9.0464   23.5727 LP  0  0  0  0  0  0  0  0  0  0  0  0  # atno 5589 bound_to 3906
  -16.3896    0.1737   21.6537 LP  0  0  0  0  0  0  0  0  0  0  0  0  # atno 5590 bound_to 3179
  -15.7270    0.7232   20.2660 LP  0  0  0  0  0  0  0  0  0  0  0  0  # atno 5591 bound_to 3179
   -8.8250   -5.8268   10.5188 LP  0  0  0  0  0  0  0  0  0  0  0  0  # atno 5600 bound_to 5203
   -8.9337   -4.2589   10.0753 LP  0  0  0  0  0  0  0  0  0  0  0  0  # atno 5601 bound_to 5203
   -5.4589   -2.7222   12.9185 LP  0  0  0  0  0  0  0  0  0  0  0  0  # atno 5606 bound_to 597 
   -4.8750   -1.3051   13.4818 LP  0  0  0  0  0  0  0  0  0  0  0  0  # atno 5607 bound_to 597 
  -13.2945   -8.6469    7.5558 LP  0  0  0  0  0  0  0  0  0  0  0  0  # atno 5610 bound_to 1939
  -14.1722   -8.0318    8.7878 LP  0  0  0  0  0  0  0  0  0  0  0  0  # atno 5611 bound_to 1939
  -23.2561   -3.9412   16.4578 LP  0  0  0  0  0  0  0  0  0  0  0  0  # atno 5640 bound_to 3227
  -22.8318   -2.6491   15.5540 LP  0  0  0  0  0  0  0  0  0  0  0  0  # atno 5641 bound_to 3227
   -7.4600    2.5681   21.7213 LP  0  0  0  0  0  0  0  0  0  0  0  0  # atno 5648 bound_to 617 
   -7.5253    0.9734   21.3763 LP  0  0  0  0  0  0  0  0  0  0  0  0  # atno 5649 bound_to 617 
  -13.2636    0.5820   33.9493 LP  0  0  0  0  0  0  0  0  0  0  0  0  # atno 5673 bound_to 3124
  -14.5527   -0.3995   33.7451 LP  0  0  0  0  0  0  0  0  0  0  0  0  # atno 5674 bound_to 3124
  -18.7395    1.9454   31.7899 LP  0  0  0  0  0  0  0  0  0  0  0  0  # atno 5675 bound_to 3403
  -18.9595    0.3273   31.8001 LP  0  0  0  0  0  0  0  0  0  0  0  0  # atno 5676 bound_to 3403

> <Gold.Score>
     Fitness  S(hb_ext) S(vdw_ext)  S(hb_int)    S(int)      intcor
     41.93       1.29      30.36       0.00      -1.10      -0.76

> <Gold.Goldscore.Fitness>
41.9315

> <Gold.Goldscore.Internal.Vdw>
-1.3783

> <Gold.Goldscore.Internal.Torsion>
-0.4901

> <Gold.Goldscore.External.Vdw>
30.3631

> <Gold.Goldscore.Internal.HBond>
0.0000

> <Gold.Goldscore.External.HBond>
1.2856

> <Gold.Goldscore.Internal.Correction>
-0.7650

> <Gold.Goldscore.Hbonds>
donor molecule, donor type, donor heavy atom, donor atom, acceptor molecule, acceptor atom, score
      L1  H    10    23       P1  2674  0.64

> <Gold.Goldscore.Internal.Vdw.Weighted>
-1.3783

> <Gold.Goldscore.Internal.Torsion.Weighted>
-0.4901

> <Gold.Goldscore.External.Vdw.Weighted>
41.7493

> <Gold.Goldscore.Internal.HBond.Weighted>
0.0000

> <Gold.Goldscore.External.HBond.Weighted>
1.2856

> <Gold.Goldscore.Internal.Correction.Weighted>
-0.7650

> <Gold.Rescore>
     Score     S(PLP)   S(hbond)     S(cho)   S(metal)  DE(clash)   DE(tors)     intcor
     46.58     -45.39       1.00       0.00       0.00       0.60       0.61       ----

> <Gold.PLP.Fitness>
46.5769

> <Gold.PLP.PLP>
-45.3946

> <Gold.PLP.part.hbond>
-3.3011

> <Gold.PLP.part.metal>
0.0000

> <Gold.PLP.part.buried>
0.2252

> <Gold.PLP.part.nonpolar>
-44.8096

> <Gold.PLP.part.repulsive>
1.1405

> <Gold.PLP.ligand.clash>
0.6045

> <Gold.PLP.ligand.torsion>
0.6066

> <Gold.PLP.Chemscore.Hbond>
1.0000

> <Gold.PLP.Chemscore.CHOScore>
0.0000

> <Gold.PLP.Chemscore.Metal>
0.0000

> <Gold.Chemscore.Hbonds>
donor molecule, donor type, donor heavy atom, donor atom, acceptor molecule, acceptor atom, score
      L1  H    10    23       P1  2674  1.00

> <Gold.PLP.Chemscore.Internal.Correction>
   9.000000E+99

#       Name:                CT1002167954
#       Creating user name   hitesit
#       Creation time:       Sun Apr 16 22:50:43 2023


#       File generated by GOLD software.
#

@<TRIPOS>MOLECULE
CT1002167954|ligand_prepared|mol2|1|dock2
    29    30     1
SMALL
NO_CHARGES


@<TRIPOS>ATOM
      1 C1          -9.1286  -2.0380  22.8582 C.3            1 RES1               0.0000
      2 C2          -9.0651  -0.9753  23.9741 C.ar           1 RES1               0.0000
      3 C3         -10.5033  -2.6913  22.9664 C.2            1 RES1               0.0000
      4 C4          -8.8943  -1.2950  21.5476 C.2            1 RES1               0.0000
      5 C5          -8.0502  -3.1395  22.9823 C.3            1 RES1               0.0000
      6 C6          -9.2839   0.3686  23.6862 C.ar           1 RES1               0.0000
      7 C7          -8.7919  -1.3231  25.2944 C.ar           1 RES1               0.0000
      8 N8         -11.4316  -2.3703  22.0202 N.am           1 RES1               0.0000
      9 O9         -10.7813  -3.4459  23.8903 O.2            1 RES1               0.0000
     10 N10         -9.9252  -1.2420  20.6464 N.am           1 RES1               0.0000
     11 O11         -7.8318  -0.7407  21.2944 O.2            1 RES1               0.0000
     12 C12         -7.9449  -4.0351  21.7580 C.3            1 RES1               0.0000
     13 C13         -9.2344   1.3296  24.6823 C.ar           1 RES1               0.0000
     14 C14         -8.7426  -0.3605  26.2890 C.ar           1 RES1               0.0000
     15 C15        -11.1932  -1.7197  20.8364 C.2            1 RES1               0.0000
     16 C16         -8.9642   0.9657  25.9843 C.ar           1 RES1               0.0000
     17 O17        -12.0822  -1.5858  20.0003 O.2            1 RES1               0.0000
     18 H18         -7.0774  -2.6633  23.1562 H              1 RES1               0.0000
     19 H19         -8.2799  -3.7617  23.8561 H              1 RES1               0.0000
     20 H20         -9.4955   0.6741  22.6669 H              1 RES1               0.0000
     21 H21         -8.6133  -2.3603  25.5571 H              1 RES1               0.0000
     22 H22        -12.3918  -2.6389  22.2105 H              1 RES1               0.0000
     23 H23         -9.7291  -0.8061  19.7509 H              1 RES1               0.0000
     24 H24         -7.1741  -4.7901  21.8976 H              1 RES1               0.0000
     25 H25         -8.8879  -4.5443  21.5703 H              1 RES1               0.0000
     26 H26         -7.6925  -3.4525  20.8745 H              1 RES1               0.0000
     27 H27         -9.4081   2.3721  24.4371 H              1 RES1               0.0000
     28 H28         -8.5290  -0.6512  27.3123 H              1 RES1               0.0000
     29 H29         -8.9258   1.7187  26.7646 H              1 RES1               0.0000
@<TRIPOS>BOND
    1    1    2 1     
    2    1    3 1     
    3    1    4 1     
    4    1    5 1     
    5    2    6 ar    
    6    2    7 ar    
    7    3    8 1     
    8    3    9 2     
    9    4   10 1     
   10    4   11 2     
   11    5   12 1     
   12    5   18 1     
   13    5   19 1     
   14    6   13 ar    
   15    6   20 1     
   16    7   14 ar    
   17    7   21 1     
   18    8   15 1     
   19    8   22 1     
   20   10   15 1     
   21   10   23 1     
   22   12   24 1     
   23   12   25 1     
   24   12   26 1     
   25   13   16 ar    
   26   13   27 1     
   27   14   16 ar    
   28   14   28 1     
   29   15   17 2     
   30   16   29 1     
@<TRIPOS>SUBSTRUCTURE
      1 RES1           1
@<TRIPOS>SET
DONOR_HYDROGENS      STATIC     ATOMS    <user>   **** ""
2 22 23
ATOM$RED        STATIC     ATOMS    COLORGROUP SYSTEM
2 22 23
@<TRIPOS>COMMENT
> <Gold.Version>
2022.3.0

> <Gold.Id.Protein>
unknown|3ovv_clean|pdb

> <Gold.Protein.RotatedTorsions>
[ 3725 3716 3715 3713 ] final  124.87 input   59.99 | X-H torsion
[ 3645 3636 3635 3633 ] final -111.82 input   60.03 | X-H torsion
[ 3915 3906 3905 3903 ] final  -17.60 input   60.03 | X-H torsion
[ 3186 3179 3177 3174 ] final  -28.33 input   59.97 | X-H torsion
[ 5212 5203 5202 5200 ] final -109.92 input   59.98 | X-H torsion
[ 2635 2624 2623 2622 ] final  -56.09 input   60.00 | X-H torsion
[  602  597  595  592 ] final  131.70 input   59.96 | X-H torsion
[ 1943 1939 1938 1935 ] final   91.68 input   60.01 | X-H torsion
[ 3236 3227 3226 3224 ] final   24.07 input   60.01 | X-H torsion
[  622  617  616  613 ] final   52.59 input   59.98 | X-H torsion
[ 3133 3124 3123 3122 ] final  137.92 input   59.98 | X-H torsion
[ 3412 3403 3402 3400 ] final  154.01 input   59.99 | X-H torsion
[ 3134 3125 3123 3122 ] final  -41.27 input   60.00 | X-H torsion

> <Gold.Protein.ActiveResidues>
 LEU49   GLY50   THR51   GLY52   SER53   PHE54   VAL79   LEU82   LYS83   GLN84  
 HIS87   THR88   GLY126  GLU127  MET128  PHE129  SER130  HIS131  LEU132  ARG133 
 ARG134  ILE135  GLY136  ARG137  ARG165  ASP166  LEU167  LYS168  PRO169  GLU170 
 ASN171  LEU173  ASP184  GLY186  PHE187  TRP196  TPO197  LEU198  CYS199  GLY200 
 THR201  PRO202  GLU203  TYR204  LEU205  ILE209  ILE210  TYR215  VAL226  LEU227 
 TYR229  GLU230  ALA233  GLY234  TYR235  PRO236  PRO237  PHE238  PHE239  ALA240 
 ASP241  GLN242  PRO243  ILE244  GLN245  ILE246  TYR247  ARG256  PHE257  PRO258 
 SER259  HIS260  ASN326  PHE327  ASP328  ASP329  TYR330 

> <Gold.Protein.RotatedAtoms>
   -5.1088   -1.2238   13.8648 H   0  0  0  0  0  0  0  0  0  0  0  0  # atno 602  bound_to 597 
   -7.4254    0.9372   20.9693 H   0  0  0  0  0  0  0  0  0  0  0  0  # atno 622  bound_to 617 
  -14.0005   -8.3509    8.7445 H   0  0  0  0  0  0  0  0  0  0  0  0  # atno 1943 bound_to 1939
  -14.8713   -0.6545   18.2567 H   0  0  0  0  0  0  0  0  0  0  0  0  # atno 2635 bound_to 2624
  -15.2108   -0.7604   19.8750 H   0  0  0  0  0  0  0  0  0  0  0  0  # atno 2636 bound_to 2624
  -13.8137   -1.4212   19.2761 H   0  0  0  0  0  0  0  0  0  0  0  0  # atno 2637 bound_to 2624
  -13.5018   -0.6030   35.0016 H   0  0  0  0  0  0  0  0  0  0  0  0  # atno 3133 bound_to 3124
  -16.8173    1.4401   35.6355 H   0  0  0  0  0  0  0  0  0  0  0  0  # atno 3134 bound_to 3125
  -15.8456    0.8341   21.1199 H   0  0  0  0  0  0  0  0  0  0  0  0  # atno 3186 bound_to 3179
  -22.7079   -2.8147   15.6180 H   0  0  0  0  0  0  0  0  0  0  0  0  # atno 3236 bound_to 3227
  -18.7796    0.2142   32.4699 H   0  0  0  0  0  0  0  0  0  0  0  0  # atno 3412 bound_to 3403
  -32.8092    2.9261   12.7654 H   0  0  0  0  0  0  0  0  0  0  0  0  # atno 3645 bound_to 3636
  -32.5685    2.7653    7.1021 H   0  0  0  0  0  0  0  0  0  0  0  0  # atno 3725 bound_to 3716
  -18.3442    7.7386   23.0011 H   0  0  0  0  0  0  0  0  0  0  0  0  # atno 3915 bound_to 3906
   -8.9512   -4.3615   10.0004 H   0  0  0  0  0  0  0  0  0  0  0  0  # atno 5212 bound_to 5203
  -32.9054    2.6448    8.6893 LP  0  0  0  0  0  0  0  0  0  0  0  0  # atno 5527 bound_to 3716
  -32.8306    1.3019    7.7632 LP  0  0  0  0  0  0  0  0  0  0  0  0  # atno 5528 bound_to 3716
  -33.5952    1.8846   11.7928 LP  0  0  0  0  0  0  0  0  0  0  0  0  # atno 5529 bound_to 3636
  -32.0485    2.2980   11.4711 LP  0  0  0  0  0  0  0  0  0  0  0  0  # atno 5530 bound_to 3636
  -17.6641    9.1309   23.4985 LP  0  0  0  0  0  0  0  0  0  0  0  0  # atno 5588 bound_to 3906
  -17.8506    8.8342   21.9036 LP  0  0  0  0  0  0  0  0  0  0  0  0  # atno 5589 bound_to 3906
  -16.1430   -0.0742   19.8025 LP  0  0  0  0  0  0  0  0  0  0  0  0  # atno 5590 bound_to 3179
  -16.7483   -0.5136   21.2542 LP  0  0  0  0  0  0  0  0  0  0  0  0  # atno 5591 bound_to 3179
   -8.5525   -4.5268   11.5694 LP  0  0  0  0  0  0  0  0  0  0  0  0  # atno 5600 bound_to 5203
   -8.7937   -5.8488   10.6416 LP  0  0  0  0  0  0  0  0  0  0  0  0  # atno 5601 bound_to 5203
   -6.1480   -2.4612   14.0561 LP  0  0  0  0  0  0  0  0  0  0  0  0  # atno 5606 bound_to 597 
   -5.1377   -2.4305   12.7736 LP  0  0  0  0  0  0  0  0  0  0  0  0  # atno 5607 bound_to 597 
  -14.1324   -7.0809    7.7354 LP  0  0  0  0  0  0  0  0  0  0  0  0  # atno 5610 bound_to 1939
  -13.2842   -8.4014    7.2841 LP  0  0  0  0  0  0  0  0  0  0  0  0  # atno 5611 bound_to 1939
  -24.2834   -2.6319   15.9824 LP  0  0  0  0  0  0  0  0  0  0  0  0  # atno 5640 bound_to 3227
  -23.4646   -3.9388   16.5193 LP  0  0  0  0  0  0  0  0  0  0  0  0  # atno 5641 bound_to 3227
   -7.1417    2.4293   20.3851 LP  0  0  0  0  0  0  0  0  0  0  0  0  # atno 5648 bound_to 617 
   -7.5498    2.2273   21.9534 LP  0  0  0  0  0  0  0  0  0  0  0  0  # atno 5649 bound_to 617 
  -13.2944    0.5881   33.9126 LP  0  0  0  0  0  0  0  0  0  0  0  0  # atno 5673 bound_to 3124
  -14.5597   -0.4352   33.7768 LP  0  0  0  0  0  0  0  0  0  0  0  0  # atno 5674 bound_to 3124
  -18.4408    1.7478   32.8953 LP  0  0  0  0  0  0  0  0  0  0  0  0  # atno 5675 bound_to 3403
  -18.9353    1.4090   31.3764 LP  0  0  0  0  0  0  0  0  0  0  0  0  # atno 5676 bound_to 3403

> <Gold.Score>
     Fitness  S(hb_ext) S(vdw_ext)  S(hb_int)    S(int)      intcor
     39.53      11.66      21.06       0.00      -1.10      -0.78

> <Gold.Goldscore.Fitness>
39.5257

> <Gold.Goldscore.Internal.Vdw>
-1.3406

> <Gold.Goldscore.Internal.Torsion>
-0.5426

> <Gold.Goldscore.External.Vdw>
21.0644

> <Gold.Goldscore.Internal.HBond>
0.0000

> <Gold.Goldscore.External.HBond>
11.6616

> <Gold.Goldscore.Internal.Correction>
-0.7838

> <Gold.Goldscore.Hbonds>
donor molecule, donor type, donor heavy atom, donor atom, acceptor molecule, acceptor atom, score
      P1  H  2624  2637       L1    17  1.00
      P1  H   617   622       L1    11  0.25
      P1  H   612   618       L1    11  1.00
      L1  H     8    22       P1  2592  0.53

> <Gold.Goldscore.Internal.Vdw.Weighted>
-1.3406

> <Gold.Goldscore.Internal.Torsion.Weighted>
-0.5426

> <Gold.Goldscore.External.Vdw.Weighted>
28.9635

> <Gold.Goldscore.Internal.HBond.Weighted>
0.0000

> <Gold.Goldscore.External.HBond.Weighted>
11.6616

> <Gold.Goldscore.Internal.Correction.Weighted>
-0.7838

> <Gold.Rescore>
     Score     S(PLP)   S(hbond)     S(cho)   S(metal)  DE(clash)   DE(tors)     intcor
     40.86     -31.76       4.00       0.00       0.00       0.00       1.45       ----

> <Gold.PLP.Fitness>
40.8580

> <Gold.PLP.PLP>
-31.7639

> <Gold.PLP.part.hbond>
-4.6804

> <Gold.PLP.part.metal>
0.0000

> <Gold.PLP.part.buried>
-3.0335

> <Gold.PLP.part.nonpolar>
-25.4272

> <Gold.PLP.part.repulsive>
0.4831

> <Gold.PLP.ligand.clash>
0.0036

> <Gold.PLP.ligand.torsion>
1.4511

> <Gold.PLP.Chemscore.Hbond>
4.0000

> <Gold.PLP.Chemscore.CHOScore>
0.0000

> <Gold.PLP.Chemscore.Metal>
0.0000

> <Gold.Chemscore.Hbonds>
donor molecule, donor type, donor heavy atom, donor atom, acceptor molecule, acceptor atom, score
      L1  H     8    22       P1  2592  0.32
      P1  H  2624  2637       L1    17  1.00
      P1  H   617   622       L1    11  1.00
      P1  H   612   618       L1    11  0.99

> <Gold.PLP.Chemscore.Internal.Correction>
   9.000000E+99

#       Name:                CT1002167954
#       Creating user name   hitesit
#       Creation time:       Sun Apr 16 22:50:50 2023


#       File generated by GOLD software.
#

@<TRIPOS>MOLECULE
CT1002167954|ligand_prepared|mol2|1|dock8
    29    30     1
SMALL
NO_CHARGES


@<TRIPOS>ATOM
      1 C1          -9.3400  -7.3707  17.5740 C.3            1 RES1               0.0000
      2 C2          -9.2068  -8.6693  16.7526 C.ar           1 RES1               0.0000
      3 C3          -8.8914  -6.2362  16.6575 C.2            1 RES1               0.0000
      4 C4         -10.8009  -7.2843  18.0016 C.2            1 RES1               0.0000
      5 C5          -8.4665  -7.3460  18.8499 C.3            1 RES1               0.0000
      6 C6          -8.9633  -8.6199  15.3833 C.ar           1 RES1               0.0000
      7 C7          -9.3223  -9.9219  17.3496 C.ar           1 RES1               0.0000
      8 N8          -9.8552  -5.4169  16.1479 N.am           1 RES1               0.0000
      9 O9          -7.7139  -6.0868  16.3549 O.2            1 RES1               0.0000
     10 N10        -11.5585  -6.2606  17.4958 N.am           1 RES1               0.0000
     11 O11        -11.3072  -8.1030  18.7589 O.2            1 RES1               0.0000
     12 C12         -8.5713  -6.0509  19.6398 C.3            1 RES1               0.0000
     13 C13         -8.8368  -9.7805  14.6382 C.ar           1 RES1               0.0000
     14 C14         -9.1956 -11.0814  16.6026 C.ar           1 RES1               0.0000
     15 C15        -11.1600  -5.3409  16.5643 C.2            1 RES1               0.0000
     16 C16         -8.9524 -11.0119  15.2473 C.ar           1 RES1               0.0000
     17 O17        -11.9158  -4.4831  16.1170 O.2            1 RES1               0.0000
     18 H18         -8.7641  -8.1798  19.4977 H              1 RES1               0.0000
     19 H19         -7.4189  -7.5011  18.5637 H              1 RES1               0.0000
     20 H20         -8.8717  -7.6599  14.8862 H              1 RES1               0.0000
     21 H21         -9.5146 -10.0007  18.4142 H              1 RES1               0.0000
     22 H22         -9.5804  -4.8041  15.3868 H              1 RES1               0.0000
     23 H23        -12.5075  -6.1762  17.8461 H              1 RES1               0.0000
     24 H24         -7.9391  -6.0865  20.5245 H              1 RES1               0.0000
     25 H25         -8.2588  -5.2031  19.0337 H              1 RES1               0.0000
     26 H26         -9.5960  -5.8777  19.9622 H              1 RES1               0.0000
     27 H27         -8.6467  -9.7205  13.5717 H              1 RES1               0.0000
     28 H28         -9.2879 -12.0483  17.0860 H              1 RES1               0.0000
     29 H29         -8.8528 -11.9210  14.6635 H              1 RES1               0.0000
@<TRIPOS>BOND
    1    1    2 1     
    2    1    3 1     
    3    1    4 1     
    4    1    5 1     
    5    2    6 ar    
    6    2    7 ar    
    7    3    8 1     
    8    3    9 2     
    9    4   10 1     
   10    4   11 2     
   11    5   12 1     
   12    5   18 1     
   13    5   19 1     
   14    6   13 ar    
   15    6   20 1     
   16    7   14 ar    
   17    7   21 1     
   18    8   15 1     
   19    8   22 1     
   20   10   15 1     
   21   10   23 1     
   22   12   24 1     
   23   12   25 1     
   24   12   26 1     
   25   13   16 ar    
   26   13   27 1     
   27   14   16 ar    
   28   14   28 1     
   29   15   17 2     
   30   16   29 1     
@<TRIPOS>SUBSTRUCTURE
      1 RES1           1
@<TRIPOS>SET
DONOR_HYDROGENS      STATIC     ATOMS    <user>   **** ""
2 22 23
ATOM$RED        STATIC     ATOMS    COLORGROUP SYSTEM
2 22 23
@<TRIPOS>COMMENT
> <Gold.Version>
2022.3.0

> <Gold.Id.Protein>
unknown|3ovv_clean|pdb

> <Gold.Protein.RotatedTorsions>
[ 3725 3716 3715 3713 ] final  -32.29 input   59.99 | X-H torsion
[ 3645 3636 3635 3633 ] final   25.82 input   60.03 | X-H torsion
[ 3915 3906 3905 3903 ] final  -47.76 input   60.03 | X-H torsion
[ 3186 3179 3177 3174 ] final -173.74 input   59.97 | X-H torsion
[ 5212 5203 5202 5200 ] final   72.98 input   59.98 | X-H torsion
[ 2635 2624 2623 2622 ] final  122.67 input   60.00 | X-H torsion
[  602  597  595  592 ] final    4.50 input   59.96 | X-H torsion
[ 1943 1939 1938 1935 ] final   56.49 input   60.01 | X-H torsion
[ 3236 3227 3226 3224 ] final  179.98 input   60.01 | X-H torsion
[  622  617  616  613 ] final   80.61 input   59.98 | X-H torsion
[ 3133 3124 3123 3122 ] final -170.95 input   59.98 | X-H torsion
[ 3412 3403 3402 3400 ] final  -83.92 input   59.99 | X-H torsion
[ 3134 3125 3123 3122 ] final  104.58 input   60.00 | X-H torsion

> <Gold.Protein.ActiveResidues>
 LEU49   GLY50   THR51   GLY52   SER53   PHE54   VAL79   LEU82   LYS83   GLN84  
 HIS87   THR88   GLY126  GLU127  MET128  PHE129  SER130  HIS131  LEU132  ARG133 
 ARG134  ILE135  GLY136  ARG137  ARG165  ASP166  LEU167  LYS168  PRO169  GLU170 
 ASN171  LEU173  ASP184  GLY186  PHE187  TRP196  TPO197  LEU198  CYS199  GLY200 
 THR201  PRO202  GLU203  TYR204  LEU205  ILE209  ILE210  TYR215  VAL226  LEU227 
 TYR229  GLU230  ALA233  GLY234  TYR235  PRO236  PRO237  PHE238  PHE239  ALA240 
 ASP241  GLN242  PRO243  ILE244  GLN245  ILE246  TYR247  ARG256  PHE257  PRO258 
 SER259  HIS260  ASN326  PHE327  ASP328  ASP329  TYR330 

> <Gold.Protein.RotatedAtoms>
   -6.1385   -2.5430   13.9714 H   0  0  0  0  0  0  0  0  0  0  0  0  # atno 602  bound_to 597 
   -7.5289    0.9912   21.4073 H   0  0  0  0  0  0  0  0  0  0  0  0  # atno 622  bound_to 617 
  -14.2454   -7.8405    8.7435 H   0  0  0  0  0  0  0  0  0  0  0  0  # atno 1943 bound_to 1939
  -14.4102   -1.2281   20.0225 H   0  0  0  0  0  0  0  0  0  0  0  0  # atno 2635 bound_to 2624
  -14.0398   -1.1395   18.4099 H   0  0  0  0  0  0  0  0  0  0  0  0  # atno 2636 bound_to 2624
  -15.4459   -0.4685   18.9757 H   0  0  0  0  0  0  0  0  0  0  0  0  # atno 2637 bound_to 2624
  -14.1723   -0.8909   34.6548 H   0  0  0  0  0  0  0  0  0  0  0  0  # atno 3133 bound_to 3124
  -16.5216    0.0394   34.5605 H   0  0  0  0  0  0  0  0  0  0  0  0  # atno 3134 bound_to 3125
  -16.3785   -0.3894   19.9294 H   0  0  0  0  0  0  0  0  0  0  0  0  # atno 3186 bound_to 3179
  -23.9993   -3.7182   16.5505 H   0  0  0  0  0  0  0  0  0  0  0  0  # atno 3236 bound_to 3227
  -18.9285    1.4387   31.3926 H   0  0  0  0  0  0  0  0  0  0  0  0  # atno 3412 bound_to 3403
  -32.2252    2.1178   11.3319 H   0  0  0  0  0  0  0  0  0  0  0  0  # atno 3645 bound_to 3636
  -32.9647    2.0518    8.7454 H   0  0  0  0  0  0  0  0  0  0  0  0  # atno 3725 bound_to 3716
  -18.2379    7.9361   23.4336 H   0  0  0  0  0  0  0  0  0  0  0  0  # atno 3915 bound_to 3906
   -8.5721   -5.4216   11.4956 H   0  0  0  0  0  0  0  0  0  0  0  0  # atno 5212 bound_to 5203
  -32.7008    1.5355    7.2252 LP  0  0  0  0  0  0  0  0  0  0  0  0  # atno 5527 bound_to 3716
  -32.6360    3.1299    7.5720 LP  0  0  0  0  0  0  0  0  0  0  0  0  # atno 5528 bound_to 3716
  -32.5398    2.9779   12.6771 LP  0  0  0  0  0  0  0  0  0  0  0  0  # atno 5529 bound_to 3636
  -33.6918    2.0183   12.0300 LP  0  0  0  0  0  0  0  0  0  0  0  0  # atno 5530 bound_to 3636
  -17.5599    9.3741   23.0854 LP  0  0  0  0  0  0  0  0  0  0  0  0  # atno 5588 bound_to 3906
  -18.0619    8.3920   21.8812 LP  0  0  0  0  0  0  0  0  0  0  0  0  # atno 5589 bound_to 3906
  -16.6247   -0.2298   21.5303 LP  0  0  0  0  0  0  0  0  0  0  0  0  # atno 5590 bound_to 3179
  -15.7302    0.8738   20.7249 LP  0  0  0  0  0  0  0  0  0  0  0  0  # atno 5591 bound_to 3179
   -8.9762   -5.3382    9.9215 LP  0  0  0  0  0  0  0  0  0  0  0  0  # atno 5600 bound_to 5203
   -8.7518   -3.9695   10.7835 LP  0  0  0  0  0  0  0  0  0  0  0  0  # atno 5601 bound_to 5203
   -5.0650   -2.3373   12.7660 LP  0  0  0  0  0  0  0  0  0  0  0  0  # atno 5606 bound_to 597 
   -5.1835   -1.2256   13.9562 LP  0  0  0  0  0  0  0  0  0  0  0  0  # atno 5607 bound_to 597 
  -13.8344   -7.2550    7.2817 LP  0  0  0  0  0  0  0  0  0  0  0  0  # atno 5610 bound_to 1939
  -13.3356   -8.7413    7.7388 LP  0  0  0  0  0  0  0  0  0  0  0  0  # atno 5611 bound_to 1939
  -22.5740   -3.3157   15.8761 LP  0  0  0  0  0  0  0  0  0  0  0  0  # atno 5640 bound_to 3227
  -23.8734   -2.3450   15.6863 LP  0  0  0  0  0  0  0  0  0  0  0  0  # atno 5641 bound_to 3227
   -7.1359    2.0113   20.2019 LP  0  0  0  0  0  0  0  0  0  0  0  0  # atno 5648 bound_to 617 
   -7.4514    2.5909   21.6956 LP  0  0  0  0  0  0  0  0  0  0  0  0  # atno 5649 bound_to 617 
  -12.9996    0.2349   34.5838 LP  0  0  0  0  0  0  0  0  0  0  0  0  # atno 5673 bound_to 3124
  -14.1792    0.2081   33.4549 LP  0  0  0  0  0  0  0  0  0  0  0  0  # atno 5674 bound_to 3124
  -18.7884    0.2009   32.4393 LP  0  0  0  0  0  0  0  0  0  0  0  0  # atno 5675 bound_to 3403
  -18.4377    1.7223   32.9178 LP  0  0  0  0  0  0  0  0  0  0  0  0  # atno 5676 bound_to 3403

> <Gold.Score>
     Fitness  S(hb_ext) S(vdw_ext)  S(hb_int)    S(int)      intcor
     39.50       1.41      29.23       0.00      -2.11      -0.76

> <Gold.Goldscore.Fitness>
39.5004

> <Gold.Goldscore.Internal.Vdw>
-2.5018

> <Gold.Goldscore.Internal.Torsion>
-0.3708

> <Gold.Goldscore.External.Vdw>
29.2319

> <Gold.Goldscore.Internal.HBond>
0.0000

> <Gold.Goldscore.External.HBond>
1.4142

> <Gold.Goldscore.Internal.Correction>
-0.7650

> <Gold.Goldscore.Hbonds>
donor molecule, donor type, donor heavy atom, donor atom, acceptor molecule, acceptor atom, score
      L1  H    10    23       P1  2674  0.71

> <Gold.Goldscore.Internal.Vdw.Weighted>
-2.5018

> <Gold.Goldscore.Internal.Torsion.Weighted>
-0.3708

> <Gold.Goldscore.External.Vdw.Weighted>
40.1938

> <Gold.Goldscore.Internal.HBond.Weighted>
0.0000

> <Gold.Goldscore.External.HBond.Weighted>
1.4142

> <Gold.Goldscore.Internal.Correction.Weighted>
-0.7650

> <Gold.Rescore>
     Score     S(PLP)   S(hbond)     S(cho)   S(metal)  DE(clash)   DE(tors)     intcor
     46.19     -45.28       0.99       0.00       0.00       0.09       0.99       ----

> <Gold.PLP.Fitness>
46.1877

> <Gold.PLP.PLP>
-45.2805

> <Gold.PLP.part.hbond>
-2.6563

> <Gold.PLP.part.metal>
0.0000

> <Gold.PLP.part.buried>
0.1390

> <Gold.PLP.part.nonpolar>
-44.8599

> <Gold.PLP.part.repulsive>
0.9966

> <Gold.PLP.ligand.clash>
0.0859

> <Gold.PLP.ligand.torsion>
0.9904

> <Gold.PLP.Chemscore.Hbond>
0.9913

> <Gold.PLP.Chemscore.CHOScore>
0.0000

> <Gold.PLP.Chemscore.Metal>
0.0000

> <Gold.Chemscore.Hbonds>
donor molecule, donor type, donor heavy atom, donor atom, acceptor molecule, acceptor atom, score
      L1  H    10    23       P1  2674  1.00

> <Gold.PLP.Chemscore.Internal.Correction>
   9.000000E+99

#       Name:                CT1002167954
#       Creating user name   hitesit
#       Creation time:       Sun Apr 16 22:50:41 2023


#       File generated by GOLD software.
#

@<TRIPOS>MOLECULE
CT1002167954|ligand_prepared|mol2|1|dock1
    29    30     1
SMALL
NO_CHARGES


@<TRIPOS>ATOM
      1 C1          -9.2614  -1.9977  23.0711 C.3            1 RES1               0.0000
      2 C2          -9.2226  -0.8650  24.1172 C.ar           1 RES1               0.0000
      3 C3         -10.6425  -2.6368  23.1827 C.2            1 RES1               0.0000
      4 C4          -8.9865  -1.3422  21.7222 C.2            1 RES1               0.0000
      5 C5          -8.1935  -3.0932  23.2965 C.3            1 RES1               0.0000
      6 C6          -9.6406   0.4204  23.7856 C.ar           1 RES1               0.0000
      7 C7          -8.7748  -1.0903  25.4161 C.ar           1 RES1               0.0000
      8 N8         -11.5422  -2.3742  22.1920 N.am           1 RES1               0.0000
      9 O9         -10.9505  -3.3287  24.1454 O.2            1 RES1               0.0000
     10 N10         -9.9916  -1.3436  20.7908 N.am           1 RES1               0.0000
     11 O11         -7.9141  -0.8100  21.4635 O.2            1 RES1               0.0000
     12 C12         -7.9012  -3.9283  22.0598 C.3            1 RES1               0.0000
     13 C13         -9.6146   1.4428  24.7196 C.ar           1 RES1               0.0000
     14 C14         -8.7494  -0.0663  26.3485 C.ar           1 RES1               0.0000
     15 C15        -11.2673  -1.8027  20.9757 C.2            1 RES1               0.0000
     16 C16         -9.1695   1.2002  26.0016 C.ar           1 RES1               0.0000
     17 O17        -12.1318  -1.7198  20.1080 O.2            1 RES1               0.0000
     18 H18         -7.2631  -2.6163  23.6285 H              1 RES1               0.0000
     19 H19         -8.5342  -3.7586  24.0994 H              1 RES1               0.0000
     20 H20         -9.9918   0.6309  22.7810 H              1 RES1               0.0000
     21 H21         -8.4385  -2.0784  25.7111 H              1 RES1               0.0000
     22 H22        -12.5089  -2.6259  22.3723 H              1 RES1               0.0000
     23 H23         -9.7682  -0.9676  19.8749 H              1 RES1               0.0000
     24 H24         -7.1456  -4.6815  22.2727 H              1 RES1               0.0000
     25 H25         -8.7997  -4.4371  21.7168 H              1 RES1               0.0000
     26 H26         -7.5360  -3.3016  21.2488 H              1 RES1               0.0000
     27 H27         -9.9450   2.4381  24.4412 H              1 RES1               0.0000
     28 H28         -8.3977  -0.2617  27.3561 H              1 RES1               0.0000
     29 H29         -9.1496   2.0012  26.7332 H              1 RES1               0.0000
@<TRIPOS>BOND
    1    1    2 1     
    2    1    3 1     
    3    1    4 1     
    4    1    5 1     
    5    2    6 ar    
    6    2    7 ar    
    7    3    8 1     
    8    3    9 2     
    9    4   10 1     
   10    4   11 2     
   11    5   12 1     
   12    5   18 1     
   13    5   19 1     
   14    6   13 ar    
   15    6   20 1     
   16    7   14 ar    
   17    7   21 1     
   18    8   15 1     
   19    8   22 1     
   20   10   15 1     
   21   10   23 1     
   22   12   24 1     
   23   12   25 1     
   24   12   26 1     
   25   13   16 ar    
   26   13   27 1     
   27   14   16 ar    
   28   14   28 1     
   29   15   17 2     
   30   16   29 1     
@<TRIPOS>SUBSTRUCTURE
      1 RES1           1
@<TRIPOS>SET
DONOR_HYDROGENS      STATIC     ATOMS    <user>   **** ""
2 22 23
ATOM$RED        STATIC     ATOMS    COLORGROUP SYSTEM
2 22 23
@<TRIPOS>COMMENT
> <Gold.Version>
2022.3.0

> <Gold.Id.Protein>
unknown|3ovv_clean|pdb

> <Gold.Protein.RotatedTorsions>
[ 3725 3716 3715 3713 ] final  -29.75 input   59.99 | X-H torsion
[ 3645 3636 3635 3633 ] final   70.24 input   60.03 | X-H torsion
[ 3915 3906 3905 3903 ] final  158.43 input   60.03 | X-H torsion
[ 3186 3179 3177 3174 ] final -116.33 input   59.97 | X-H torsion
[ 5212 5203 5202 5200 ] final -159.13 input   59.98 | X-H torsion
[ 2635 2624 2623 2622 ] final  -70.54 input   60.00 | X-H torsion
[  602  597  595  592 ] final    3.06 input   59.96 | X-H torsion
[ 1943 1939 1938 1935 ] final   27.43 input   60.01 | X-H torsion
[ 3236 3227 3226 3224 ] final  -37.48 input   60.01 | X-H torsion
[  622  617  616  613 ] final -160.39 input   59.98 | X-H torsion
[ 3133 3124 3123 3122 ] final  111.65 input   59.98 | X-H torsion
[ 3412 3403 3402 3400 ] final   31.25 input   59.99 | X-H torsion
[ 3134 3125 3123 3122 ] final  -73.85 input   60.00 | X-H torsion

> <Gold.Protein.ActiveResidues>
 LEU49   GLY50   THR51   GLY52   SER53   PHE54   VAL79   LEU82   LYS83   GLN84  
 HIS87   THR88   GLY126  GLU127  MET128  PHE129  SER130  HIS131  LEU132  ARG133 
 ARG134  ILE135  GLY136  ARG137  ARG165  ASP166  LEU167  LYS168  PRO169  GLU170 
 ASN171  LEU173  ASP184  GLY186  PHE187  TRP196  TPO197  LEU198  CYS199  GLY200 
 THR201  PRO202  GLU203  TYR204  LEU205  ILE209  ILE210  TYR215  VAL226  LEU227 
 TYR229  GLU230  ALA233  GLY234  TYR235  PRO236  PRO237  PHE238  PHE239  ALA240 
 ASP241  GLN242  PRO243  ILE244  GLN245  ILE246  TYR247  ARG256  PHE257  PRO258 
 SER259  HIS260  ASN326  PHE327  ASP328  ASP329  TYR330 

> <Gold.Protein.RotatedAtoms>
   -6.1366   -2.5589   13.9542 H   0  0  0  0  0  0  0  0  0  0  0  0  # atno 602  bound_to 597 
   -7.4526    2.5752   21.7040 H   0  0  0  0  0  0  0  0  0  0  0  0  # atno 622  bound_to 617 
  -14.3291   -7.4399    8.5129 H   0  0  0  0  0  0  0  0  0  0  0  0  # atno 1943 bound_to 1939
  -14.6625   -0.7588   18.1983 H   0  0  0  0  0  0  0  0  0  0  0  0  # atno 2635 bound_to 2624
  -15.3448   -0.6558   19.7047 H   0  0  0  0  0  0  0  0  0  0  0  0  # atno 2636 bound_to 2624
  -13.8884   -1.4215   19.5049 H   0  0  0  0  0  0  0  0  0  0  0  0  # atno 2637 bound_to 2624
  -13.2101   -0.2967   34.9567 H   0  0  0  0  0  0  0  0  0  0  0  0  # atno 3133 bound_to 3124
  -16.7420    1.1396   36.0598 H   0  0  0  0  0  0  0  0  0  0  0  0  # atno 3134 bound_to 3125
  -15.8851    0.3625   19.9078 H   0  0  0  0  0  0  0  0  0  0  0  0  # atno 3186 bound_to 3179
  -23.5266   -2.3195   15.5683 H   0  0  0  0  0  0  0  0  0  0  0  0  # atno 3236 bound_to 3227
  -18.4493    1.7759   32.8602 H   0  0  0  0  0  0  0  0  0  0  0  0  # atno 3412 bound_to 3403
  -32.8567    1.8046   11.2667 H   0  0  0  0  0  0  0  0  0  0  0  0  # atno 3645 bound_to 3636
  -32.9628    2.0925    8.7533 H   0  0  0  0  0  0  0  0  0  0  0  0  # atno 3725 bound_to 3716
  -17.5745    9.3809   22.5392 H   0  0  0  0  0  0  0  0  0  0  0  0  # atno 3915 bound_to 3906
   -8.7819   -3.9782   10.6579 H   0  0  0  0  0  0  0  0  0  0  0  0  # atno 5212 bound_to 5203
  -32.7094    1.5086    7.2560 LP  0  0  0  0  0  0  0  0  0  0  0  0  # atno 5527 bound_to 3716
  -32.6293    3.1159    7.5332 LP  0  0  0  0  0  0  0  0  0  0  0  0  # atno 5528 bound_to 3716
  -32.0253    2.8449   12.2021 LP  0  0  0  0  0  0  0  0  0  0  0  0  # atno 5529 bound_to 3636
  -33.5705    2.4667   12.5707 LP  0  0  0  0  0  0  0  0  0  0  0  0  # atno 5530 bound_to 3636
  -18.2613    7.9577   22.1501 LP  0  0  0  0  0  0  0  0  0  0  0  0  # atno 5588 bound_to 3906
  -18.0284    8.3537   23.7171 LP  0  0  0  0  0  0  0  0  0  0  0  0  # atno 5589 bound_to 3906
  -16.7640   -0.7019   20.7701 LP  0  0  0  0  0  0  0  0  0  0  0  0  # atno 5590 bound_to 3179
  -16.0875    0.5889   21.5068 LP  0  0  0  0  0  0  0  0  0  0  0  0  # atno 5591 bound_to 3179
   -8.5567   -5.3120   11.5626 LP  0  0  0  0  0  0  0  0  0  0  0  0  # atno 5600 bound_to 5203
   -8.9601   -5.4497    9.9862 LP  0  0  0  0  0  0  0  0  0  0  0  0  # atno 5601 bound_to 5203
   -5.0511   -2.3181   12.7660 LP  0  0  0  0  0  0  0  0  0  0  0  0  # atno 5606 bound_to 597 
   -5.1993   -1.2288   13.9736 LP  0  0  0  0  0  0  0  0  0  0  0  0  # atno 5607 bound_to 597 
  -13.5752   -7.5949    7.0790 LP  0  0  0  0  0  0  0  0  0  0  0  0  # atno 5610 bound_to 1939
  -13.5104   -8.8049    8.1737 LP  0  0  0  0  0  0  0  0  0  0  0  0  # atno 5611 bound_to 1939
  -24.2512   -3.4630   16.4715 LP  0  0  0  0  0  0  0  0  0  0  0  0  # atno 5640 bound_to 3227
  -22.6722   -3.6064   16.0804 LP  0  0  0  0  0  0  0  0  0  0  0  0  # atno 5641 bound_to 3227
   -7.5291    0.9796   21.3937 LP  0  0  0  0  0  0  0  0  0  0  0  0  # atno 5648 bound_to 617 
   -7.1351    2.0275   20.2049 LP  0  0  0  0  0  0  0  0  0  0  0  0  # atno 5649 bound_to 617 
  -13.6161    0.5559   33.6316 LP  0  0  0  0  0  0  0  0  0  0  0  0  # atno 5673 bound_to 3124
  -14.5317   -0.7114   34.1029 LP  0  0  0  0  0  0  0  0  0  0  0  0  # atno 5674 bound_to 3124
  -18.9445    1.3656   31.3655 LP  0  0  0  0  0  0  0  0  0  0  0  0  # atno 5675 bound_to 3403
  -18.7644    0.2178   32.5130 LP  0  0  0  0  0  0  0  0  0  0  0  0  # atno 5676 bound_to 3403

> <Gold.Score>
     Fitness  S(hb_ext) S(vdw_ext)  S(hb_int)    S(int)      intcor
     38.80      11.18      20.90       0.00      -1.12      -0.79

> <Gold.Goldscore.Fitness>
38.7986

> <Gold.Goldscore.Internal.Vdw>
-0.9586

> <Gold.Goldscore.Internal.Torsion>
-0.9444

> <Gold.Goldscore.External.Vdw>
20.8973

> <Gold.Goldscore.Internal.HBond>
0.0000

> <Gold.Goldscore.External.HBond>
11.1819

> <Gold.Goldscore.Internal.Correction>
-0.7859

> <Gold.Goldscore.Hbonds>
donor molecule, donor type, donor heavy atom, donor atom, acceptor molecule, acceptor atom, score
      P1  H  2624  2637       L1    17  1.00
      P1  H   612   618       L1    11  1.00
      L1  H     8    22       P1  2592  0.53

> <Gold.Goldscore.Internal.Vdw.Weighted>
-0.9586

> <Gold.Goldscore.Internal.Torsion.Weighted>
-0.9444

> <Gold.Goldscore.External.Vdw.Weighted>
28.7338

> <Gold.Goldscore.Internal.HBond.Weighted>
0.0000

> <Gold.Goldscore.External.HBond.Weighted>
11.1819

> <Gold.Goldscore.Internal.Correction.Weighted>
-0.7859

> <Gold.Rescore>
     Score     S(PLP)   S(hbond)     S(cho)   S(metal)  DE(clash)   DE(tors)     intcor
     40.59     -32.84       3.00       0.00       0.00       0.00       0.63       ----

> <Gold.PLP.Fitness>
40.5876

> <Gold.PLP.PLP>
-32.8435

> <Gold.PLP.part.hbond>
-4.6361

> <Gold.PLP.part.metal>
0.0000

> <Gold.PLP.part.buried>
-4.9386

> <Gold.PLP.part.nonpolar>
-24.8184

> <Gold.PLP.part.repulsive>
0.4517

> <Gold.PLP.ligand.clash>
0.0000

> <Gold.PLP.ligand.torsion>
0.6280

> <Gold.PLP.Chemscore.Hbond>
3.0000

> <Gold.PLP.Chemscore.CHOScore>
0.0000

> <Gold.PLP.Chemscore.Metal>
0.0000

> <Gold.Chemscore.Hbonds>
donor molecule, donor type, donor heavy atom, donor atom, acceptor molecule, acceptor atom, score
      L1  H     8    22       P1  2592  0.63
      P1  H  2624  2637       L1    17  1.00
      P1  H   612   618       L1    11  1.00

> <Gold.PLP.Chemscore.Internal.Correction>
   9.000000E+99

#       Name:                CT1002167954
#       Creating user name   hitesit
#       Creation time:       Sun Apr 16 22:50:45 2023


#       File generated by GOLD software.
#

@<TRIPOS>MOLECULE
CT1002167954|ligand_prepared|mol2|1|dock4
    29    30     1
SMALL
NO_CHARGES


@<TRIPOS>ATOM
      1 C1          -9.3722  -7.0474  17.1960 C.3            1 RES1               0.0000
      2 C2          -8.1438  -6.5050  17.9547 C.ar           1 RES1               0.0000
      3 C3         -10.4762  -7.2191  18.2352 C.2            1 RES1               0.0000
      4 C4          -9.6912  -6.0228  16.1129 C.2            1 RES1               0.0000
      5 C5          -9.1294  -8.4106  16.5074 C.3            1 RES1               0.0000
      6 C6          -6.9245  -6.3412  17.3041 C.ar           1 RES1               0.0000
      7 C7          -8.2150  -6.1622  19.3023 C.ar           1 RES1               0.0000
      8 N8         -11.4987  -6.3167  18.2257 N.am           1 RES1               0.0000
      9 O9         -10.4301  -8.1092  19.0753 O.2            1 RES1               0.0000
     10 N10        -10.8755  -5.3395  16.2042 N.am           1 RES1               0.0000
     11 O11         -8.9202  -5.7890  15.1903 O.2            1 RES1               0.0000
     12 C12        -10.3695  -8.9944  15.8489 C.3            1 RES1               0.0000
     13 C13         -5.8173  -5.8498  17.9756 C.ar           1 RES1               0.0000
     14 C14         -7.1065  -5.6711  19.9720 C.ar           1 RES1               0.0000
     15 C15        -11.7796  -5.4179  17.2282 C.2            1 RES1               0.0000
     16 C16         -5.9076  -5.5140  19.3096 C.ar           1 RES1               0.0000
     17 O17        -12.7963  -4.7309  17.2664 O.2            1 RES1               0.0000
     18 H18         -8.3498  -8.2875  15.7455 H              1 RES1               0.0000
     19 H19         -8.7583  -9.1226  17.2548 H              1 RES1               0.0000
     20 H20         -6.8338  -6.6024  16.2551 H              1 RES1               0.0000
     21 H21         -9.1476  -6.2785  19.8439 H              1 RES1               0.0000
     22 H22        -12.1111  -6.3094  19.0352 H              1 RES1               0.0000
     23 H23        -11.1043  -4.7145  15.4378 H              1 RES1               0.0000
     24 H24        -10.1440  -9.9503  15.3810 H              1 RES1               0.0000
     25 H25        -11.1571  -9.1536  16.5824 H              1 RES1               0.0000
     26 H26        -10.7511  -8.3234  15.0821 H              1 RES1               0.0000
     27 H27         -4.8757  -5.7293  17.4501 H              1 RES1               0.0000
     28 H28         -7.1819  -5.4088  21.0221 H              1 RES1               0.0000
     29 H29         -5.0401  -5.1287  19.8353 H              1 RES1               0.0000
@<TRIPOS>BOND
    1    1    2 1     
    2    1    3 1     
    3    1    4 1     
    4    1    5 1     
    5    2    6 ar    
    6    2    7 ar    
    7    3    8 1     
    8    3    9 2     
    9    4   10 1     
   10    4   11 2     
   11    5   12 1     
   12    5   18 1     
   13    5   19 1     
   14    6   13 ar    
   15    6   20 1     
   16    7   14 ar    
   17    7   21 1     
   18    8   15 1     
   19    8   22 1     
   20   10   15 1     
   21   10   23 1     
   22   12   24 1     
   23   12   25 1     
   24   12   26 1     
   25   13   16 ar    
   26   13   27 1     
   27   14   16 ar    
   28   14   28 1     
   29   15   17 2     
   30   16   29 1     
@<TRIPOS>SUBSTRUCTURE
      1 RES1           1
@<TRIPOS>SET
DONOR_HYDROGENS      STATIC     ATOMS    <user>   **** ""
2 22 23
ATOM$RED        STATIC     ATOMS    COLORGROUP SYSTEM
2 22 23
@<TRIPOS>COMMENT
> <Gold.Version>
2022.3.0

> <Gold.Id.Protein>
unknown|3ovv_clean|pdb

> <Gold.Protein.RotatedTorsions>
[ 3725 3716 3715 3713 ] final  -77.10 input   59.99 | X-H torsion
[ 3645 3636 3635 3633 ] final   45.65 input   60.03 | X-H torsion
[ 3915 3906 3905 3903 ] final -156.68 input   60.03 | X-H torsion
[ 3186 3179 3177 3174 ] final -149.25 input   59.97 | X-H torsion
[ 5212 5203 5202 5200 ] final   57.69 input   59.98 | X-H torsion
[ 2635 2624 2623 2622 ] final  -33.54 input   60.00 | X-H torsion
[  602  597  595  592 ] final  -10.78 input   59.96 | X-H torsion
[ 1943 1939 1938 1935 ] final  -85.45 input   60.01 | X-H torsion
[ 3236 3227 3226 3224 ] final    6.93 input   60.01 | X-H torsion
[  622  617  616  613 ] final  159.98 input   59.98 | X-H torsion
[ 3133 3124 3123 3122 ] final  -77.38 input   59.98 | X-H torsion
[ 3412 3403 3402 3400 ] final   28.09 input   59.99 | X-H torsion
[ 3134 3125 3123 3122 ] final  139.45 input   60.00 | X-H torsion

> <Gold.Protein.ActiveResidues>
 LEU49   GLY50   THR51   GLY52   SER53   PHE54   VAL79   LEU82   LYS83   GLN84  
 HIS87   THR88   GLY126  GLU127  MET128  PHE129  SER130  HIS131  LEU132  ARG133 
 ARG134  ILE135  GLY136  ARG137  ARG165  ASP166  LEU167  LYS168  PRO169  GLU170 
 ASN171  LEU173  ASP184  GLY186  PHE187  TRP196  TPO197  LEU198  CYS199  GLY200 
 THR201  PRO202  GLU203  TYR204  LEU205  ILE209  ILE210  TYR215  VAL226  LEU227 
 TYR229  GLU230  ALA233  GLY234  TYR235  PRO236  PRO237  PHE238  PHE239  ALA240 
 ASP241  GLN242  PRO243  ILE244  GLN245  ILE246  TYR247  ARG256  PHE257  PRO258 
 SER259  HIS260  ASN326  PHE327  ASP328  ASP329  TYR330 

> <Gold.Protein.RotatedAtoms>
   -6.0967   -2.6931   13.7773 H   0  0  0  0  0  0  0  0  0  0  0  0  # atno 602  bound_to 597 
   -7.5778    2.0282   22.0005 H   0  0  0  0  0  0  0  0  0  0  0  0  # atno 622  bound_to 617 
  -13.6383   -7.5034    7.1151 H   0  0  0  0  0  0  0  0  0  0  0  0  # atno 1943 bound_to 1939
  -15.1621   -0.5306   18.4564 H   0  0  0  0  0  0  0  0  0  0  0  0  # atno 2635 bound_to 2624
  -14.9325   -0.9442   20.0443 H   0  0  0  0  0  0  0  0  0  0  0  0  # atno 2636 bound_to 2624
  -13.8012   -1.3612   18.9071 H   0  0  0  0  0  0  0  0  0  0  0  0  # atno 2637 bound_to 2624
  -14.4365   -0.1191   33.5611 H   0  0  0  0  0  0  0  0  0  0  0  0  # atno 3133 bound_to 3124
  -16.4405   -0.2849   35.0112 H   0  0  0  0  0  0  0  0  0  0  0  0  # atno 3134 bound_to 3125
  -16.1539   -0.0845   19.8096 H   0  0  0  0  0  0  0  0  0  0  0  0  # atno 3186 bound_to 3179
  -22.8807   -2.6078   15.5461 H   0  0  0  0  0  0  0  0  0  0  0  0  # atno 3236 bound_to 3227
  -18.4554    1.8112   32.8230 H   0  0  0  0  0  0  0  0  0  0  0  0  # atno 3412 bound_to 3403
  -32.4844    1.9461   11.2463 H   0  0  0  0  0  0  0  0  0  0  0  0  # atno 3645 bound_to 3636
  -32.9332    1.4620    8.3452 H   0  0  0  0  0  0  0  0  0  0  0  0  # atno 3725 bound_to 3716
  -17.5912    9.3038   23.2498 H   0  0  0  0  0  0  0  0  0  0  0  0  # atno 3915 bound_to 3906
   -8.6129   -5.6104   11.3385 H   0  0  0  0  0  0  0  0  0  0  0  0  # atno 5212 bound_to 5203
  -32.5852    2.1790    6.9267 LP  0  0  0  0  0  0  0  0  0  0  0  0  # atno 5527 bound_to 3716
  -32.7835    3.0806    8.2737 LP  0  0  0  0  0  0  0  0  0  0  0  0  # atno 5528 bound_to 3716
  -32.2684    2.9615   12.4997 LP  0  0  0  0  0  0  0  0  0  0  0  0  # atno 5529 bound_to 3636
  -33.7023    2.2077   12.2936 LP  0  0  0  0  0  0  0  0  0  0  0  0  # atno 5530 bound_to 3636
  -17.9847    8.5553   21.8593 LP  0  0  0  0  0  0  0  0  0  0  0  0  # atno 5588 bound_to 3906
  -18.2882    7.8337   23.2924 LP  0  0  0  0  0  0  0  0  0  0  0  0  # atno 5589 bound_to 3906
  -16.7454   -0.5050   21.2664 LP  0  0  0  0  0  0  0  0  0  0  0  0  # atno 5590 bound_to 3179
  -15.8356    0.8420   21.1093 LP  0  0  0  0  0  0  0  0  0  0  0  0  # atno 5591 bound_to 3179
   -8.9961   -5.1016    9.8411 LP  0  0  0  0  0  0  0  0  0  0  0  0  # atno 5600 bound_to 5203
   -8.6909   -4.0161   11.0222 LP  0  0  0  0  0  0  0  0  0  0  0  0  # atno 5601 bound_to 5203
   -4.9328   -2.1258   12.7917 LP  0  0  0  0  0  0  0  0  0  0  0  0  # atno 5606 bound_to 597 
   -5.3578   -1.2859   14.1261 LP  0  0  0  0  0  0  0  0  0  0  0  0  # atno 5607 bound_to 597 
  -13.4587   -8.8096    8.0690 LP  0  0  0  0  0  0  0  0  0  0  0  0  # atno 5610 bound_to 1939
  -14.3226   -7.5262    8.5915 LP  0  0  0  0  0  0  0  0  0  0  0  0  # atno 5611 bound_to 1939
  -24.3775   -2.8454   16.1390 LP  0  0  0  0  0  0  0  0  0  0  0  0  # atno 5640 bound_to 3227
  -23.1966   -3.9337   16.4352 LP  0  0  0  0  0  0  0  0  0  0  0  0  # atno 5641 bound_to 3227
   -7.3753    0.9788   20.7734 LP  0  0  0  0  0  0  0  0  0  0  0  0  # atno 5648 bound_to 617 
   -7.1627    2.5790   20.5266 LP  0  0  0  0  0  0  0  0  0  0  0  0  # atno 5649 bound_to 617 
  -13.8296   -0.8131   34.9018 LP  0  0  0  0  0  0  0  0  0  0  0  0  # atno 5673 bound_to 3124
  -13.0831    0.4787   34.2382 LP  0  0  0  0  0  0  0  0  0  0  0  0  # atno 5674 bound_to 3124
  -18.9543    1.3155   31.3557 LP  0  0  0  0  0  0  0  0  0  0  0  0  # atno 5675 bound_to 3403
  -18.7484    0.2324   32.5603 LP  0  0  0  0  0  0  0  0  0  0  0  0  # atno 5676 bound_to 3403

> <Gold.Score>
     Fitness  S(hb_ext) S(vdw_ext)  S(hb_int)    S(int)      intcor
     38.77       0.04      29.70       0.00      -2.11      -0.77

> <Gold.Goldscore.Fitness>
38.7663

> <Gold.Goldscore.Internal.Vdw>
-2.4766

> <Gold.Goldscore.Internal.Torsion>
-0.4001

> <Gold.Goldscore.External.Vdw>
29.6951

> <Gold.Goldscore.Internal.HBond>
0.0000

> <Gold.Goldscore.External.HBond>
0.0437

> <Gold.Goldscore.Internal.Correction>
-0.7686

> <Gold.Goldscore.Hbonds>
donor molecule, donor type, donor heavy atom, donor atom, acceptor molecule, acceptor atom, score
      L1  H     8    22       P1  2674  0.02

> <Gold.Goldscore.Internal.Vdw.Weighted>
-2.4766

> <Gold.Goldscore.Internal.Torsion.Weighted>
-0.4001

> <Gold.Goldscore.External.Vdw.Weighted>
40.8307

> <Gold.Goldscore.Internal.HBond.Weighted>
0.0000

> <Gold.Goldscore.External.HBond.Weighted>
0.0437

> <Gold.Goldscore.Internal.Correction.Weighted>
-0.7686

> <Gold.Rescore>
     Score     S(PLP)   S(hbond)     S(cho)   S(metal)  DE(clash)   DE(tors)     intcor
     33.88     -33.74       0.53       0.00       0.00       1.37       0.04       ----

> <Gold.PLP.Fitness>
33.8763

> <Gold.PLP.PLP>
-33.7403

> <Gold.PLP.part.hbond>
-1.4401

> <Gold.PLP.part.metal>
0.0000

> <Gold.PLP.part.buried>
-1.6901

> <Gold.PLP.part.nonpolar>
-32.5815

> <Gold.PLP.part.repulsive>
0.6061

> <Gold.PLP.ligand.clash>
1.3657

> <Gold.PLP.ligand.torsion>
0.0412

> <Gold.PLP.Chemscore.Hbond>
0.5280

> <Gold.PLP.Chemscore.CHOScore>
0.0000

> <Gold.PLP.Chemscore.Metal>
0.0000

> <Gold.Chemscore.Hbonds>
donor molecule, donor type, donor heavy atom, donor atom, acceptor molecule, acceptor atom, score
      L1  H     8    22       P1  2674  0.50

> <Gold.PLP.Chemscore.Internal.Correction>
   9.000000E+99

#       Name:                CT1002167954
#       Creating user name   hitesit
#       Creation time:       Sun Apr 16 22:50:53 2023


#       File generated by GOLD software.
#

@<TRIPOS>MOLECULE
CT1002167954|ligand_prepared|mol2|1|dock10
    29    30     1
SMALL
NO_CHARGES


@<TRIPOS>ATOM
      1 C1          -9.5290  -6.3157  17.0187 C.3            1 RES1               0.0000
      2 C2          -8.2348  -6.0315  17.8079 C.ar           1 RES1               0.0000
      3 C3         -10.1537  -4.9568  16.7165 C.2            1 RES1               0.0000
      4 C4          -9.1096  -7.0972  15.7786 C.2            1 RES1               0.0000
      5 C5         -10.5596  -7.1684  17.7948 C.3            1 RES1               0.0000
      6 C6          -6.9916  -6.1331  17.1907 C.ar           1 RES1               0.0000
      7 C7          -8.2680  -5.6647  19.1507 C.ar           1 RES1               0.0000
      8 N8         -10.0722  -4.4947  15.4360 N.am           1 RES1               0.0000
      9 O9         -10.6751  -4.2832  17.5966 O.2            1 RES1               0.0000
     10 N10         -9.2792  -6.5014  14.5563 N.am           1 RES1               0.0000
     11 O11         -8.6183  -8.2170  15.8499 O.2            1 RES1               0.0000
     12 C12        -11.7397  -7.6228  16.9504 C.3            1 RES1               0.0000
     13 C13         -5.8241  -5.8746  17.8895 C.ar           1 RES1               0.0000
     14 C14         -7.0993  -5.4068  19.8478 C.ar           1 RES1               0.0000
     15 C15         -9.7130  -5.2235  14.3307 C.2            1 RES1               0.0000
     16 C16         -5.8771  -5.5109  19.2183 C.ar           1 RES1               0.0000
     17 O17         -9.7872  -4.7397  13.2049 O.2            1 RES1               0.0000
     18 H18        -10.0529  -8.0535  18.1988 H              1 RES1               0.0000
     19 H19        -10.9367  -6.5820  18.6419 H              1 RES1               0.0000
     20 H20         -6.9300  -6.4205  16.1463 H              1 RES1               0.0000
     21 H21         -9.2181  -5.5776  19.6667 H              1 RES1               0.0000
     22 H22        -10.2993  -3.5167  15.2863 H              1 RES1               0.0000
     23 H23         -9.0620  -7.0626  13.7388 H              1 RES1               0.0000
     24 H24        -12.4320  -8.2170  17.5430 H              1 RES1               0.0000
     25 H25        -12.2818  -6.7672  16.5529 H              1 RES1               0.0000
     26 H26        -11.4033  -8.2299  16.1125 H              1 RES1               0.0000
     27 H27         -4.8648  -5.9592  17.3899 H              1 RES1               0.0000
     28 H28         -7.1457  -5.1215  20.8936 H              1 RES1               0.0000
     29 H29         -4.9624  -5.3080  19.7654 H              1 RES1               0.0000
@<TRIPOS>BOND
    1    1    2 1     
    2    1    3 1     
    3    1    4 1     
    4    1    5 1     
    5    2    6 ar    
    6    2    7 ar    
    7    3    8 1     
    8    3    9 2     
    9    4   10 1     
   10    4   11 2     
   11    5   12 1     
   12    5   18 1     
   13    5   19 1     
   14    6   13 ar    
   15    6   20 1     
   16    7   14 ar    
   17    7   21 1     
   18    8   15 1     
   19    8   22 1     
   20   10   15 1     
   21   10   23 1     
   22   12   24 1     
   23   12   25 1     
   24   12   26 1     
   25   13   16 ar    
   26   13   27 1     
   27   14   16 ar    
   28   14   28 1     
   29   15   17 2     
   30   16   29 1     
@<TRIPOS>SUBSTRUCTURE
      1 RES1           1
@<TRIPOS>SET
DONOR_HYDROGENS      STATIC     ATOMS    <user>   **** ""
2 22 23
ATOM$RED        STATIC     ATOMS    COLORGROUP SYSTEM
2 22 23
@<TRIPOS>COMMENT
> <Gold.Version>
2022.3.0

> <Gold.Id.Protein>
unknown|3ovv_clean|pdb

> <Gold.Protein.RotatedTorsions>
[ 3725 3716 3715 3713 ] final -150.56 input   59.99 | X-H torsion
[ 3645 3636 3635 3633 ] final    6.57 input   60.03 | X-H torsion
[ 3915 3906 3905 3903 ] final  -78.82 input   60.03 | X-H torsion
[ 3186 3179 3177 3174 ] final   76.67 input   59.97 | X-H torsion
[ 5212 5203 5202 5200 ] final   -7.74 input   59.98 | X-H torsion
[ 2635 2624 2623 2622 ] final  -74.62 input   60.00 | X-H torsion
[  602  597  595  592 ] final  -25.70 input   59.96 | X-H torsion
[ 1943 1939 1938 1935 ] final  148.59 input   60.01 | X-H torsion
[ 3236 3227 3226 3224 ] final  -70.52 input   60.01 | X-H torsion
[  622  617  616  613 ] final -176.73 input   59.98 | X-H torsion
[ 3133 3124 3123 3122 ] final -111.89 input   59.98 | X-H torsion
[ 3412 3403 3402 3400 ] final  104.64 input   59.99 | X-H torsion
[ 3134 3125 3123 3122 ] final  179.24 input   60.00 | X-H torsion

> <Gold.Protein.ActiveResidues>
 LEU49   GLY50   THR51   GLY52   SER53   PHE54   VAL79   LEU82   LYS83   GLN84  
 HIS87   THR88   GLY126  GLU127  MET128  PHE129  SER130  HIS131  LEU132  ARG133 
 ARG134  ILE135  GLY136  ARG137  ARG165  ASP166  LEU167  LYS168  PRO169  GLU170 
 ASN171  LEU173  ASP184  GLY186  PHE187  TRP196  TPO197  LEU198  CYS199  GLY200 
 THR201  PRO202  GLU203  TYR204  LEU205  ILE209  ILE210  TYR215  VAL226  LEU227 
 TYR229  GLU230  ALA233  GLY234  TYR235  PRO236  PRO237  PHE238  PHE239  ALA240 
 ASP241  GLN242  PRO243  ILE244  GLN245  ILE246  TYR247  ARG256  PHE257  PRO258 
 SER259  HIS260  ASN326  PHE327  ASP328  ASP329  TYR330 

> <Gold.Protein.RotatedAtoms>
   -6.0126   -2.7949   13.5732 H   0  0  0  0  0  0  0  0  0  0  0  0  # atno 602  bound_to 597 
   -7.5128    2.3774   21.8714 H   0  0  0  0  0  0  0  0  0  0  0  0  # atno 622  bound_to 617 
  -13.5053   -8.8012    8.1547 H   0  0  0  0  0  0  0  0  0  0  0  0  # atno 1943 bound_to 1939
  -14.6025   -0.7908   18.1925 H   0  0  0  0  0  0  0  0  0  0  0  0  # atno 2635 bound_to 2624
  -15.3748   -0.6293   19.6495 H   0  0  0  0  0  0  0  0  0  0  0  0  # atno 2636 bound_to 2624
  -13.9184   -1.4160   19.5659 H   0  0  0  0  0  0  0  0  0  0  0  0  # atno 2637 bound_to 2624
  -14.5644   -0.5440   33.8949 H   0  0  0  0  0  0  0  0  0  0  0  0  # atno 3133 bound_to 3124
  -16.4314   -0.2740   35.6484 H   0  0  0  0  0  0  0  0  0  0  0  0  # atno 3134 bound_to 3125
  -16.6848   -0.3528   21.4284 H   0  0  0  0  0  0  0  0  0  0  0  0  # atno 3186 bound_to 3179
  -24.0130   -2.4052   15.7667 H   0  0  0  0  0  0  0  0  0  0  0  0  # atno 3236 bound_to 3227
  -18.5436    0.6782   33.0533 H   0  0  0  0  0  0  0  0  0  0  0  0  # atno 3412 bound_to 3403
  -32.0405    2.3133   11.4922 H   0  0  0  0  0  0  0  0  0  0  0  0  # atno 3645 bound_to 3636
  -32.7047    1.5221    7.2509 H   0  0  0  0  0  0  0  0  0  0  0  0  # atno 3725 bound_to 3716
  -18.0488    8.3171   23.6992 H   0  0  0  0  0  0  0  0  0  0  0  0  # atno 3915 bound_to 3906
   -8.8609   -5.7678   10.3702 H   0  0  0  0  0  0  0  0  0  0  0  0  # atno 5212 bound_to 5203
  -32.6314    3.1205    7.5455 LP  0  0  0  0  0  0  0  0  0  0  0  0  # atno 5527 bound_to 3716
  -32.9674    2.0785    8.7571 LP  0  0  0  0  0  0  0  0  0  0  0  0  # atno 5528 bound_to 3716
  -32.8351    2.9250   12.7740 LP  0  0  0  0  0  0  0  0  0  0  0  0  # atno 5529 bound_to 3636
  -33.5825    1.8745   11.7718 LP  0  0  0  0  0  0  0  0  0  0  0  0  # atno 5530 bound_to 3636
  -17.5639    9.3955   22.5810 LP  0  0  0  0  0  0  0  0  0  0  0  0  # atno 5588 bound_to 3906
  -18.2483    7.9870   22.1182 LP  0  0  0  0  0  0  0  0  0  0  0  0  # atno 5589 bound_to 3906
  -15.7644    0.8779   20.8925 LP  0  0  0  0  0  0  0  0  0  0  0  0  # atno 5590 bound_to 3179
  -16.2820   -0.2708   19.8536 LP  0  0  0  0  0  0  0  0  0  0  0  0  # atno 5591 bound_to 3179
   -8.9027   -4.1505   10.1951 LP  0  0  0  0  0  0  0  0  0  0  0  0  # atno 5600 bound_to 5203
   -8.5345   -4.8086   11.6435 LP  0  0  0  0  0  0  0  0  0  0  0  0  # atno 5601 bound_to 5203
   -4.8400   -1.9131   12.8696 LP  0  0  0  0  0  0  0  0  0  0  0  0  # atno 5606 bound_to 597 
   -5.5353   -1.3961   14.2538 LP  0  0  0  0  0  0  0  0  0  0  0  0  # atno 5607 bound_to 597 
  -14.3305   -7.4498    8.5303 LP  0  0  0  0  0  0  0  0  0  0  0  0  # atno 5610 bound_to 1939
  -13.5849   -7.5789    7.0832 LP  0  0  0  0  0  0  0  0  0  0  0  0  # atno 5611 bound_to 1939
  -23.8580   -3.8154   16.5641 LP  0  0  0  0  0  0  0  0  0  0  0  0  # atno 5640 bound_to 3227
  -22.5755   -3.1678   15.7878 LP  0  0  0  0  0  0  0  0  0  0  0  0  # atno 5641 bound_to 3227
   -7.4708    0.9254   21.1379 LP  0  0  0  0  0  0  0  0  0  0  0  0  # atno 5648 bound_to 617 
   -7.1327    2.2808   20.2921 LP  0  0  0  0  0  0  0  0  0  0  0  0  # atno 5649 bound_to 617 
  -13.3779   -0.5007   35.0075 LP  0  0  0  0  0  0  0  0  0  0  0  0  # atno 5673 bound_to 3124
  -13.4060    0.5943   33.7964 LP  0  0  0  0  0  0  0  0  0  0  0  0  # atno 5674 bound_to 3124
  -18.6064    2.0557   32.1896 LP  0  0  0  0  0  0  0  0  0  0  0  0  # atno 5675 bound_to 3403
  -19.0074    0.6336   31.4943 LP  0  0  0  0  0  0  0  0  0  0  0  0  # atno 5676 bound_to 3403

> <Gold.Score>
     Fitness  S(hb_ext) S(vdw_ext)  S(hb_int)    S(int)      intcor
     34.81       0.04      26.40       0.00      -1.53      -0.76

> <Gold.Goldscore.Fitness>
34.8124

> <Gold.Goldscore.Internal.Vdw>
-1.8148

> <Gold.Goldscore.Internal.Torsion>
-0.4831

> <Gold.Goldscore.External.Vdw>
26.4019

> <Gold.Goldscore.Internal.HBond>
0.0000

> <Gold.Goldscore.External.HBond>
0.0427

> <Gold.Goldscore.Internal.Correction>
-0.7650

> <Gold.Goldscore.Hbonds>
donor molecule, donor type, donor heavy atom, donor atom, acceptor molecule, acceptor atom, score
      P1  H   591   603       L1    17  0.02

> <Gold.Goldscore.Internal.Vdw.Weighted>
-1.8148

> <Gold.Goldscore.Internal.Torsion.Weighted>
-0.4831

> <Gold.Goldscore.External.Vdw.Weighted>
36.3026

> <Gold.Goldscore.Internal.HBond.Weighted>
0.0000

> <Gold.Goldscore.External.HBond.Weighted>
0.0427

> <Gold.Goldscore.Internal.Correction.Weighted>
-0.7650

> <Gold.Rescore>
     Score     S(PLP)   S(hbond)     S(cho)   S(metal)  DE(clash)   DE(tors)     intcor
     33.93     -36.16       0.00       0.00       0.00       2.11       0.06       ----

> <Gold.PLP.Fitness>
33.9324

> <Gold.PLP.PLP>
-36.1628

> <Gold.PLP.part.hbond>
-1.4225

> <Gold.PLP.part.metal>
0.0000

> <Gold.PLP.part.buried>
-4.1211

> <Gold.PLP.part.nonpolar>
-32.1335

> <Gold.PLP.part.repulsive>
0.5227

> <Gold.PLP.ligand.clash>
2.1101

> <Gold.PLP.ligand.torsion>
0.0602

> <Gold.PLP.Chemscore.Hbond>
0.0000

> <Gold.PLP.Chemscore.CHOScore>
0.0000

> <Gold.PLP.Chemscore.Metal>
0.0000

> <Gold.PLP.Chemscore.Internal.Correction>
   9.000000E+99

