#       Name:                GA Fitting Points
#       Creating user name   hitesit
#       Creation time:       Sun Apr 16 22:50:31 2023


#       Fitting Points Used by GA Software.
#

@<TRIPOS>MOLECULE
GA Fitting Points
 15133    0    0
SMALL
NO_CHARGES


@<TRIPOS>ATOM
      1 ****       -36.0000   4.2500   9.0000 Du        
      2 ****       -36.0000   4.5000   9.0000 Du        
      3 ****       -35.7500   4.0000   8.0000 Du        
      4 ****       -35.7500   4.0000   8.2500 Du        
      5 ****       -35.7500   4.0000   8.5000 Du        
      6 ****       -35.7500   4.0000   8.7500 Du        
      7 ****       -35.7500   4.0000   9.0000 Du        
      8 ****       -35.7500   4.0000   9.2500 Du        
      9 ****       -35.7500   4.2500   8.2500 Du        
     10 ****       -35.7500   4.2500   8.5000 Du        
     11 ****       -35.7500   4.2500   8.7500 Du        
     12 ****       -35.7500   4.2500   9.0000 Du        
     13 ****       -35.7500   4.2500   9.2500 Du        
     14 ****       -35.7500   4.5000   8.5000 Du        
     15 ****       -35.7500   4.5000   8.7500 Du        
     16 ****       -35.7500   4.5000   9.0000 Du        
     17 ****       -35.7500   4.5000   9.2500 Du        
     18 ****       -35.7500   4.7500   8.7500 Du        
     19 ****       -35.7500   4.7500   9.0000 Du        
     20 ****       -35.7500   9.2500  15.0000 Du        
     21 ****       -35.5000   4.0000   8.5000 Du        
     22 ****       -35.5000   4.0000   8.7500 Du        
     23 ****       -35.5000   4.0000   9.0000 Du        
     24 ****       -35.5000   4.0000   9.2500 Du        
     25 ****       -35.5000   4.0000   9.5000 Du        
     26 ****       -35.5000   4.2500   8.5000 Du        
     27 ****       -35.5000   4.2500   8.7500 Du        
     28 ****       -35.5000   4.2500   9.0000 Du        
     29 ****       -35.5000   4.2500   9.2500 Du        
     30 ****       -35.5000   4.2500   9.5000 Du        
     31 ****       -35.5000   4.5000   8.5000 Du        
     32 ****       -35.5000   4.5000   8.7500 Du        
     33 ****       -35.5000   4.5000   9.0000 Du        
     34 ****       -35.5000   4.5000   9.2500 Du        
     35 ****       -35.5000   4.7500   8.7500 Du        
     36 ****       -35.5000   4.7500   9.0000 Du        
     37 ****       -35.5000   9.0000  15.0000 Du        
     38 ****       -35.5000   9.2500  15.0000 Du        
     39 ****       -35.2500   3.7500   9.2500 Du        
     40 ****       -35.2500   3.7500   9.5000 Du        
     41 ****       -35.2500   4.0000   8.7500 Du        
     42 ****       -35.2500   4.0000   9.0000 Du        
     43 ****       -35.2500   4.0000   9.2500 Du        
     44 ****       -35.2500   4.0000   9.5000 Du        
     45 ****       -35.2500   4.0000   9.7500 Du        
     46 ****       -35.2500   4.2500   8.7500 Du        
     47 ****       -35.2500   4.2500   9.0000 Du        
     48 ****       -35.2500   4.2500   9.2500 Du        
     49 ****       -35.2500   4.2500   9.5000 Du        
     50 ****       -35.2500   4.2500   9.7500 Du        
     51 ****       -35.2500   4.5000   8.7500 Du        
     52 ****       -35.2500   4.5000   9.0000 Du        
     53 ****       -35.2500   4.5000   9.2500 Du        
     54 ****       -35.2500   4.7500   9.0000 Du        
     55 ****       -35.2500   4.7500   9.2500 Du        
     56 ****       -35.0000   3.7500   9.5000 Du        
     57 ****       -35.0000   3.7500   9.7500 Du        
     58 ****       -35.0000   4.0000   9.2500 Du        
     59 ****       -35.0000   4.0000   9.5000 Du        
     60 ****       -35.0000   4.0000   9.7500 Du        
     61 ****       -35.0000   4.2500   9.0000 Du        
     62 ****       -35.0000   4.2500   9.2500 Du        
     63 ****       -35.0000   4.2500   9.5000 Du        
     64 ****       -35.0000   4.2500   9.7500 Du        
     65 ****       -35.0000   4.5000   9.0000 Du        
     66 ****       -35.0000   4.5000   9.2500 Du        
     67 ****       -35.0000   4.5000   9.5000 Du        
     68 ****       -35.0000   4.7500   9.0000 Du        
     69 ****       -35.0000   4.7500   9.2500 Du        
     70 ****       -34.7500   4.0000   9.7500 Du        
     71 ****       -34.7500   4.0000  10.0000 Du        
     72 ****       -34.7500   4.2500   9.5000 Du        
     73 ****       -34.7500   4.2500   9.7500 Du        
     74 ****       -34.7500   4.5000   9.5000 Du        
     75 ****       -34.5000   4.2500   9.7500 Du        
     76 ****       -34.2500   8.7500  14.7500 Du        
     77 ****       -34.0000   8.2500  14.5000 Du        
     78 ****       -34.0000   8.7500  14.7500 Du        
     79 ****       -34.0000   8.7500  15.0000 Du        
     80 ****       -34.0000   9.0000  14.7500 Du        
     81 ****       -34.0000   9.0000  15.0000 Du        
     82 ****       -34.0000   9.2500  15.0000 Du        
     83 ****       -34.0000  10.0000  15.5000 Du        
     84 ****       -34.0000  10.0000  15.7500 Du        
     85 ****       -34.0000  10.2500  15.5000 Du        
     86 ****       -34.0000  10.2500  15.7500 Du        
     87 ****       -34.0000  10.2500  16.0000 Du        
     88 ****       -33.7500   8.2500  14.5000 Du        
     89 ****       -33.7500   8.2500  14.7500 Du        
     90 ****       -33.7500   8.5000  14.7500 Du        
     91 ****       -33.7500   8.7500  14.7500 Du        
     92 ****       -33.7500   8.7500  15.0000 Du        
     93 ****       -33.7500   9.0000  14.7500 Du        
     94 ****       -33.7500   9.0000  15.0000 Du        
     95 ****       -33.7500   9.2500  15.0000 Du        
     96 ****       -33.7500   9.7500  15.5000 Du        
     97 ****       -33.7500   9.7500  15.7500 Du        
     98 ****       -33.7500  10.0000  15.5000 Du        
     99 ****       -33.7500  10.0000  15.7500 Du        
    100 ****       -33.7500  10.0000  16.0000 Du        
    101 ****       -33.7500  10.2500  15.5000 Du        
    102 ****       -33.7500  10.2500  15.7500 Du        
    103 ****       -33.7500  10.2500  16.0000 Du        
    104 ****       -33.7500  10.7500  16.0000 Du        
    105 ****       -33.7500  11.0000  16.0000 Du        
    106 ****       -33.7500  11.0000  16.2500 Du        
    107 ****       -33.7500  11.0000  16.5000 Du        
    108 ****       -33.7500  11.2500  16.5000 Du        
    109 ****       -33.5000   8.0000  14.2500 Du        
    110 ****       -33.5000   8.0000  14.5000 Du        
    111 ****       -33.5000   8.0000  14.7500 Du        
    112 ****       -33.5000   8.2500  14.2500 Du        
    113 ****       -33.5000   8.2500  14.5000 Du        
    114 ****       -33.5000   8.2500  14.7500 Du        
    115 ****       -33.5000   8.2500  15.0000 Du        
    116 ****       -33.5000   8.5000  14.7500 Du        
    117 ****       -33.5000   8.7500  14.7500 Du        
    118 ****       -33.5000   9.0000  15.0000 Du        
    119 ****       -33.5000   9.2500  15.5000 Du        
    120 ****       -33.5000   9.7500  15.5000 Du        
    121 ****       -33.5000   9.7500  15.7500 Du        
    122 ****       -33.5000  10.0000  15.5000 Du        
    123 ****       -33.5000  10.0000  15.7500 Du        
    124 ****       -33.5000  10.0000  16.0000 Du        
    125 ****       -33.5000  10.2500  15.5000 Du        
    126 ****       -33.5000  10.2500  15.7500 Du        
    127 ****       -33.5000  10.2500  16.0000 Du        
    128 ****       -33.5000  10.2500  16.2500 Du        
    129 ****       -33.5000  10.2500  16.5000 Du        
    130 ****       -33.5000  10.5000  15.7500 Du        
    131 ****       -33.5000  10.5000  16.0000 Du        
    132 ****       -33.5000  10.5000  16.2500 Du        
    133 ****       -33.5000  10.5000  16.5000 Du        
    134 ****       -33.5000  10.7500  16.0000 Du        
    135 ****       -33.5000  10.7500  16.2500 Du        
    136 ****       -33.5000  10.7500  16.5000 Du        
    137 ****       -33.5000  10.7500  16.7500 Du        
    138 ****       -33.5000  11.0000  16.0000 Du        
    139 ****       -33.5000  11.0000  16.2500 Du        
    140 ****       -33.5000  11.0000  16.5000 Du        
    141 ****       -33.5000  11.0000  16.7500 Du        
    142 ****       -33.5000  11.0000  17.0000 Du        
    143 ****       -33.5000  11.2500  16.0000 Du        
    144 ****       -33.5000  11.2500  16.2500 Du        
    145 ****       -33.5000  11.2500  16.5000 Du        
    146 ****       -33.5000  11.2500  16.7500 Du        
    147 ****       -33.5000  11.2500  17.0000 Du        
    148 ****       -33.5000  11.2500  17.2500 Du        
    149 ****       -33.5000  11.5000  16.5000 Du        
    150 ****       -33.5000  11.5000  16.7500 Du        
    151 ****       -33.5000  11.5000  17.0000 Du        
    152 ****       -33.5000  11.5000  17.5000 Du        
    153 ****       -33.5000  11.7500  16.5000 Du        
    154 ****       -33.5000  11.7500  16.7500 Du        
    155 ****       -33.5000  11.7500  17.0000 Du        
    156 ****       -33.5000  11.7500  17.2500 Du        
    157 ****       -33.5000  11.7500  17.5000 Du        
    158 ****       -33.5000  12.0000  16.5000 Du        
    159 ****       -33.5000  12.0000  16.7500 Du        
    160 ****       -33.5000  12.0000  17.0000 Du        
    161 ****       -33.5000  12.0000  17.2500 Du        
    162 ****       -33.5000  12.0000  17.5000 Du        
    163 ****       -33.5000  12.2500  16.7500 Du        
    164 ****       -33.5000  12.2500  17.0000 Du        
    165 ****       -33.5000  12.2500  17.2500 Du        
    166 ****       -33.5000  12.2500  17.5000 Du        
    167 ****       -33.5000  12.5000  16.7500 Du        
    168 ****       -33.5000  12.5000  17.5000 Du        
    169 ****       -33.2500  -0.2500   4.5000 Du        
    170 ****       -33.2500  -0.2500   4.7500 Du        
    171 ****       -33.2500   0.0000   4.5000 Du        
    172 ****       -33.2500   0.0000   4.7500 Du        
    173 ****       -33.2500   0.0000   5.0000 Du        
    174 ****       -33.2500   0.2500   4.5000 Du        
    175 ****       -33.2500   0.2500   4.7500 Du        
    176 ****       -33.2500   0.2500   5.0000 Du        
    177 ****       -33.2500   0.5000   4.5000 Du        
    178 ****       -33.2500   0.5000   4.7500 Du        
    179 ****       -33.2500   5.2500  10.5000 Du        
    180 ****       -33.2500   7.5000  14.5000 Du        
    181 ****       -33.2500   7.5000  14.7500 Du        
    182 ****       -33.2500   7.7500  14.0000 Du        
    183 ****       -33.2500   7.7500  14.2500 Du        
    184 ****       -33.2500   7.7500  14.5000 Du        
    185 ****       -33.2500   7.7500  14.7500 Du        
    186 ****       -33.2500   7.7500  15.0000 Du        
    187 ****       -33.2500   8.0000  14.0000 Du        
    188 ****       -33.2500   8.0000  14.2500 Du        
    189 ****       -33.2500   8.0000  14.5000 Du        
    190 ****       -33.2500   8.0000  14.7500 Du        
    191 ****       -33.2500   8.0000  15.0000 Du        
    192 ****       -33.2500   8.2500  14.0000 Du        
    193 ****       -33.2500   8.2500  14.2500 Du        
    194 ****       -33.2500   8.2500  14.5000 Du        
    195 ****       -33.2500   8.2500  14.7500 Du        
    196 ****       -33.2500   8.2500  15.0000 Du        
    197 ****       -33.2500   8.5000  14.5000 Du        
    198 ****       -33.2500   8.5000  14.7500 Du        
    199 ****       -33.2500   8.5000  15.0000 Du        
    200 ****       -33.2500   8.7500  14.7500 Du        
    201 ****       -33.2500   8.7500  15.0000 Du        
    202 ****       -33.2500   8.7500  15.2500 Du        
    203 ****       -33.2500   9.0000  15.0000 Du        
    204 ****       -33.2500   9.0000  15.2500 Du        
    205 ****       -33.2500   9.0000  15.5000 Du        
    206 ****       -33.2500   9.2500  15.0000 Du        
    207 ****       -33.2500   9.2500  15.2500 Du        
    208 ****       -33.2500   9.2500  15.5000 Du        
    209 ****       -33.2500   9.5000  15.2500 Du        
    210 ****       -33.2500   9.5000  15.5000 Du        
    211 ****       -33.2500   9.5000  15.7500 Du        
    212 ****       -33.2500   9.7500  15.2500 Du        
    213 ****       -33.2500   9.7500  15.5000 Du        
    214 ****       -33.2500   9.7500  15.7500 Du        
    215 ****       -33.2500   9.7500  16.0000 Du        
    216 ****       -33.2500  10.0000  15.2500 Du        
    217 ****       -33.2500  10.0000  15.5000 Du        
    218 ****       -33.2500  10.0000  15.7500 Du        
    219 ****       -33.2500  10.0000  16.0000 Du        
    220 ****       -33.2500  10.0000  16.2500 Du        
    221 ****       -33.2500  10.0000  16.5000 Du        
    222 ****       -33.2500  10.2500  15.2500 Du        
    223 ****       -33.2500  10.2500  15.5000 Du        
    224 ****       -33.2500  10.2500  15.7500 Du        
    225 ****       -33.2500  10.2500  16.0000 Du        
    226 ****       -33.2500  10.2500  16.2500 Du        
    227 ****       -33.2500  10.2500  16.5000 Du        
    228 ****       -33.2500  10.2500  16.7500 Du        
    229 ****       -33.2500  10.5000  15.7500 Du        
    230 ****       -33.2500  10.5000  16.0000 Du        
    231 ****       -33.2500  10.5000  16.2500 Du        
    232 ****       -33.2500  10.5000  16.5000 Du        
    233 ****       -33.2500  10.5000  16.7500 Du        
    234 ****       -33.2500  10.5000  17.0000 Du        
    235 ****       -33.2500  10.7500  15.7500 Du        
    236 ****       -33.2500  10.7500  16.0000 Du        
    237 ****       -33.2500  10.7500  16.2500 Du        
    238 ****       -33.2500  10.7500  16.5000 Du        
    239 ****       -33.2500  10.7500  16.7500 Du        
    240 ****       -33.2500  10.7500  17.0000 Du        
    241 ****       -33.2500  10.7500  17.2500 Du        
    242 ****       -33.2500  10.7500  17.5000 Du        
    243 ****       -33.2500  11.0000  15.7500 Du        
    244 ****       -33.2500  11.0000  16.0000 Du        
    245 ****       -33.2500  11.0000  16.2500 Du        
    246 ****       -33.2500  11.0000  16.5000 Du        
    247 ****       -33.2500  11.0000  16.7500 Du        
    248 ****       -33.2500  11.0000  17.0000 Du        
    249 ****       -33.2500  11.0000  17.2500 Du        
    250 ****       -33.2500  11.0000  17.5000 Du        
    251 ****       -33.2500  11.0000  17.7500 Du        
    252 ****       -33.2500  11.2500  16.0000 Du        
    253 ****       -33.2500  11.2500  16.2500 Du        
    254 ****       -33.2500  11.2500  16.5000 Du        
    255 ****       -33.2500  11.2500  16.7500 Du        
    256 ****       -33.2500  11.2500  17.0000 Du        
    257 ****       -33.2500  11.2500  17.2500 Du        
    258 ****       -33.2500  11.2500  17.5000 Du        
    259 ****       -33.2500  11.2500  17.7500 Du        
    260 ****       -33.2500  11.5000  16.2500 Du        
    261 ****       -33.2500  11.5000  16.5000 Du        
    262 ****       -33.2500  11.5000  16.7500 Du        
    263 ****       -33.2500  11.5000  17.0000 Du        
    264 ****       -33.2500  11.5000  17.2500 Du        
    265 ****       -33.2500  11.5000  17.5000 Du        
    266 ****       -33.2500  11.5000  17.7500 Du        
    267 ****       -33.2500  11.7500  16.2500 Du        
    268 ****       -33.2500  11.7500  16.5000 Du        
    269 ****       -33.2500  11.7500  16.7500 Du        
    270 ****       -33.2500  11.7500  17.0000 Du        
    271 ****       -33.2500  11.7500  17.2500 Du        
    272 ****       -33.2500  11.7500  17.5000 Du        
    273 ****       -33.2500  11.7500  17.7500 Du        
    274 ****       -33.2500  12.0000  16.5000 Du        
    275 ****       -33.2500  12.0000  16.7500 Du        
    276 ****       -33.2500  12.0000  17.0000 Du        
    277 ****       -33.2500  12.0000  17.2500 Du        
    278 ****       -33.2500  12.0000  17.5000 Du        
    279 ****       -33.2500  12.0000  17.7500 Du        
    280 ****       -33.2500  12.2500  16.5000 Du        
    281 ****       -33.2500  12.2500  16.7500 Du        
    282 ****       -33.2500  12.2500  17.0000 Du        
    283 ****       -33.2500  12.2500  17.2500 Du        
    284 ****       -33.2500  12.2500  17.5000 Du        
    285 ****       -33.2500  12.2500  17.7500 Du        
    286 ****       -33.2500  12.5000  16.7500 Du        
    287 ****       -33.2500  12.5000  17.0000 Du        
    288 ****       -33.2500  12.5000  17.2500 Du        
    289 ****       -33.2500  12.5000  17.5000 Du        
    290 ****       -33.2500  12.5000  17.7500 Du        
    291 ****       -33.2500  12.7500  16.7500 Du        
    292 ****       -33.2500  12.7500  17.0000 Du        
    293 ****       -33.2500  12.7500  17.2500 Du        
    294 ****       -33.2500  12.7500  17.5000 Du        
    295 ****       -33.2500  12.7500  17.7500 Du        
    296 ****       -33.2500  13.0000  17.2500 Du        
    297 ****       -33.2500  13.0000  17.5000 Du        
    298 ****       -33.2500  13.0000  17.7500 Du        
    299 ****       -33.2500  13.2500  17.5000 Du        
    300 ****       -33.0000  -0.5000   4.5000 Du        
    301 ****       -33.0000  -0.5000   4.7500 Du        
    302 ****       -33.0000  -0.2500   4.5000 Du        
    303 ****       -33.0000  -0.2500   4.7500 Du        
    304 ****       -33.0000  -0.2500   5.0000 Du        
    305 ****       -33.0000   0.0000   4.5000 Du        
    306 ****       -33.0000   0.0000   4.7500 Du        
    307 ****       -33.0000   0.0000   5.0000 Du        
    308 ****       -33.0000   0.2500   4.5000 Du        
    309 ****       -33.0000   0.2500   4.7500 Du        
    310 ****       -33.0000   0.2500   5.0000 Du        
    311 ****       -33.0000   5.2500  10.5000 Du        
    312 ****       -33.0000   5.2500  10.7500 Du        
    313 ****       -33.0000   5.2500  11.0000 Du        
    314 ****       -33.0000   7.2500  14.0000 Du        
    315 ****       -33.0000   7.2500  14.2500 Du        
    316 ****       -33.0000   7.2500  14.5000 Du        
    317 ****       -33.0000   7.2500  14.7500 Du        
    318 ****       -33.0000   7.5000  14.0000 Du        
    319 ****       -33.0000   7.5000  14.2500 Du        
    320 ****       -33.0000   7.5000  14.5000 Du        
    321 ****       -33.0000   7.5000  14.7500 Du        
    322 ****       -33.0000   7.5000  15.0000 Du        
    323 ****       -33.0000   7.7500  13.7500 Du        
    324 ****       -33.0000   7.7500  14.0000 Du        
    325 ****       -33.0000   7.7500  14.2500 Du        
    326 ****       -33.0000   7.7500  14.5000 Du        
    327 ****       -33.0000   7.7500  14.7500 Du        
    328 ****       -33.0000   7.7500  15.0000 Du        
    329 ****       -33.0000   7.7500  15.2500 Du        
    330 ****       -33.0000   8.0000  14.0000 Du        
    331 ****       -33.0000   8.0000  14.2500 Du        
    332 ****       -33.0000   8.0000  14.5000 Du        
    333 ****       -33.0000   8.0000  14.7500 Du        
    334 ****       -33.0000   8.0000  15.0000 Du        
    335 ****       -33.0000   8.0000  15.2500 Du        
    336 ****       -33.0000   8.2500  14.0000 Du        
    337 ****       -33.0000   8.2500  14.2500 Du        
    338 ****       -33.0000   8.2500  14.5000 Du        
    339 ****       -33.0000   8.2500  14.7500 Du        
    340 ****       -33.0000   8.2500  15.0000 Du        
    341 ****       -33.0000   8.2500  15.2500 Du        
    342 ****       -33.0000   8.5000  14.5000 Du        
    343 ****       -33.0000   8.5000  14.7500 Du        
    344 ****       -33.0000   8.5000  15.0000 Du        
    345 ****       -33.0000   8.5000  15.2500 Du        
    346 ****       -33.0000   8.7500  14.7500 Du        
    347 ****       -33.0000   8.7500  15.0000 Du        
    348 ****       -33.0000   8.7500  15.2500 Du        
    349 ****       -33.0000   8.7500  15.5000 Du        
    350 ****       -33.0000   9.0000  15.0000 Du        
    351 ****       -33.0000   9.0000  15.2500 Du        
    352 ****       -33.0000   9.0000  15.5000 Du        
    353 ****       -33.0000   9.0000  15.7500 Du        
    354 ****       -33.0000   9.2500  15.0000 Du        
    355 ****       -33.0000   9.2500  15.2500 Du        
    356 ****       -33.0000   9.2500  15.5000 Du        
    357 ****       -33.0000   9.2500  15.7500 Du        
    358 ****       -33.0000   9.5000  15.0000 Du        
    359 ****       -33.0000   9.5000  15.2500 Du        
    360 ****       -33.0000   9.5000  15.5000 Du        
    361 ****       -33.0000   9.5000  15.7500 Du        
    362 ****       -33.0000   9.5000  16.0000 Du        
    363 ****       -33.0000   9.7500  15.0000 Du        
    364 ****       -33.0000   9.7500  15.2500 Du        
    365 ****       -33.0000   9.7500  15.5000 Du        
    366 ****       -33.0000   9.7500  15.7500 Du        
    367 ****       -33.0000   9.7500  16.0000 Du        
    368 ****       -33.0000   9.7500  16.2500 Du        
    369 ****       -33.0000   9.7500  16.5000 Du        
    370 ****       -33.0000  10.0000  15.2500 Du        
    371 ****       -33.0000  10.0000  15.5000 Du        
    372 ****       -33.0000  10.0000  15.7500 Du        
    373 ****       -33.0000  10.0000  16.0000 Du        
    374 ****       -33.0000  10.0000  16.2500 Du        
    375 ****       -33.0000  10.0000  16.5000 Du        
    376 ****       -33.0000  10.0000  16.7500 Du        
    377 ****       -33.0000  10.0000  17.0000 Du        
    378 ****       -33.0000  10.0000  17.2500 Du        
    379 ****       -33.0000  10.2500  15.2500 Du        
    380 ****       -33.0000  10.2500  15.5000 Du        
    381 ****       -33.0000  10.2500  15.7500 Du        
    382 ****       -33.0000  10.2500  16.0000 Du        
    383 ****       -33.0000  10.2500  16.2500 Du        
    384 ****       -33.0000  10.2500  16.5000 Du        
    385 ****       -33.0000  10.2500  16.7500 Du        
    386 ****       -33.0000  10.2500  17.0000 Du        
    387 ****       -33.0000  10.2500  17.2500 Du        
    388 ****       -33.0000  10.2500  17.5000 Du        
    389 ****       -33.0000  10.2500  17.7500 Du        
    390 ****       -33.0000  10.5000  15.5000 Du        
    391 ****       -33.0000  10.5000  15.7500 Du        
    392 ****       -33.0000  10.5000  16.0000 Du        
    393 ****       -33.0000  10.5000  16.2500 Du        
    394 ****       -33.0000  10.5000  16.5000 Du        
    395 ****       -33.0000  10.5000  16.7500 Du        
    396 ****       -33.0000  10.5000  17.0000 Du        
    397 ****       -33.0000  10.5000  17.2500 Du        
    398 ****       -33.0000  10.5000  17.5000 Du        
    399 ****       -33.0000  10.5000  17.7500 Du        
    400 ****       -33.0000  10.7500  15.7500 Du        
    401 ****       -33.0000  10.7500  16.0000 Du        
    402 ****       -33.0000  10.7500  16.2500 Du        
    403 ****       -33.0000  10.7500  16.5000 Du        
    404 ****       -33.0000  10.7500  16.7500 Du        
    405 ****       -33.0000  10.7500  17.0000 Du        
    406 ****       -33.0000  10.7500  17.2500 Du        
    407 ****       -33.0000  10.7500  17.5000 Du        
    408 ****       -33.0000  10.7500  17.7500 Du        
    409 ****       -33.0000  11.0000  15.7500 Du        
    410 ****       -33.0000  11.0000  16.0000 Du        
    411 ****       -33.0000  11.0000  16.2500 Du        
    412 ****       -33.0000  11.0000  16.5000 Du        
    413 ****       -33.0000  11.0000  16.7500 Du        
    414 ****       -33.0000  11.0000  17.0000 Du        
    415 ****       -33.0000  11.0000  17.2500 Du        
    416 ****       -33.0000  11.0000  17.5000 Du        
    417 ****       -33.0000  11.0000  17.7500 Du        
    418 ****       -33.0000  11.0000  18.0000 Du        
    419 ****       -33.0000  11.2500  16.0000 Du        
    420 ****       -33.0000  11.2500  16.2500 Du        
    421 ****       -33.0000  11.2500  16.5000 Du        
    422 ****       -33.0000  11.2500  16.7500 Du        
    423 ****       -33.0000  11.2500  17.0000 Du        
    424 ****       -33.0000  11.2500  17.2500 Du        
    425 ****       -33.0000  11.2500  17.5000 Du        
    426 ****       -33.0000  11.2500  17.7500 Du        
    427 ****       -33.0000  11.2500  18.0000 Du        
    428 ****       -33.0000  11.5000  16.0000 Du        
    429 ****       -33.0000  11.5000  16.2500 Du        
    430 ****       -33.0000  11.5000  16.5000 Du        
    431 ****       -33.0000  11.5000  16.7500 Du        
    432 ****       -33.0000  11.5000  17.0000 Du        
    433 ****       -33.0000  11.5000  17.2500 Du        
    434 ****       -33.0000  11.5000  17.5000 Du        
    435 ****       -33.0000  11.5000  17.7500 Du        
    436 ****       -33.0000  11.7500  16.2500 Du        
    437 ****       -33.0000  11.7500  16.5000 Du        
    438 ****       -33.0000  11.7500  16.7500 Du        
    439 ****       -33.0000  11.7500  17.0000 Du        
    440 ****       -33.0000  11.7500  17.2500 Du        
    441 ****       -33.0000  11.7500  17.5000 Du        
    442 ****       -33.0000  11.7500  17.7500 Du        
    443 ****       -33.0000  12.0000  16.2500 Du        
    444 ****       -33.0000  12.0000  16.5000 Du        
    445 ****       -33.0000  12.0000  16.7500 Du        
    446 ****       -33.0000  12.0000  17.0000 Du        
    447 ****       -33.0000  12.0000  17.2500 Du        
    448 ****       -33.0000  12.0000  17.5000 Du        
    449 ****       -33.0000  12.0000  17.7500 Du        
    450 ****       -33.0000  12.2500  16.5000 Du        
    451 ****       -33.0000  12.2500  16.7500 Du        
    452 ****       -33.0000  12.2500  17.0000 Du        
    453 ****       -33.0000  12.2500  17.2500 Du        
    454 ****       -33.0000  12.2500  17.5000 Du        
    455 ****       -33.0000  12.2500  17.7500 Du        
    456 ****       -33.0000  12.5000  16.7500 Du        
    457 ****       -33.0000  12.5000  17.0000 Du        
    458 ****       -33.0000  12.5000  17.2500 Du        
    459 ****       -33.0000  12.5000  17.5000 Du        
    460 ****       -33.0000  12.5000  17.7500 Du        
    461 ****       -33.0000  12.7500  16.7500 Du        
    462 ****       -33.0000  12.7500  17.0000 Du        
    463 ****       -33.0000  12.7500  17.2500 Du        
    464 ****       -33.0000  12.7500  17.5000 Du        
    465 ****       -33.0000  12.7500  17.7500 Du        
    466 ****       -33.0000  13.0000  17.0000 Du        
    467 ****       -33.0000  13.0000  17.2500 Du        
    468 ****       -33.0000  13.0000  17.5000 Du        
    469 ****       -33.0000  13.0000  17.7500 Du        
    470 ****       -33.0000  13.2500  17.2500 Du        
    471 ****       -33.0000  13.2500  17.5000 Du        
    472 ****       -33.0000  13.2500  17.7500 Du        
    473 ****       -32.7500  -0.7500   4.0000 Du        
    474 ****       -32.7500  -0.7500   4.2500 Du        
    475 ****       -32.7500  -0.7500   4.5000 Du        
    476 ****       -32.7500  -0.7500   4.7500 Du        
    477 ****       -32.7500  -0.7500   5.0000 Du        
    478 ****       -32.7500  -0.7500   5.2500 Du        
    479 ****       -32.7500  -0.5000   4.0000 Du        
    480 ****       -32.7500  -0.5000   4.2500 Du        
    481 ****       -32.7500  -0.5000   4.5000 Du        
    482 ****       -32.7500  -0.5000   4.7500 Du        
    483 ****       -32.7500  -0.5000   5.0000 Du        
    484 ****       -32.7500  -0.5000   5.2500 Du        
    485 ****       -32.7500  -0.2500   4.2500 Du        
    486 ****       -32.7500  -0.2500   4.5000 Du        
    487 ****       -32.7500  -0.2500   4.7500 Du        
    488 ****       -32.7500  -0.2500   5.0000 Du        
    489 ****       -32.7500  -0.2500   5.2500 Du        
    490 ****       -32.7500   0.0000   4.5000 Du        
    491 ****       -32.7500   0.0000   4.7500 Du        
    492 ****       -32.7500   0.0000   5.0000 Du        
    493 ****       -32.7500   5.0000  11.7500 Du        
    494 ****       -32.7500   5.2500  10.7500 Du        
    495 ****       -32.7500   5.2500  11.0000 Du        
    496 ****       -32.7500   5.2500  11.2500 Du        
    497 ****       -32.7500   5.2500  11.5000 Du        
    498 ****       -32.7500   5.2500  11.7500 Du        
    499 ****       -32.7500   5.2500  12.0000 Du        
    500 ****       -32.7500   5.2500  12.2500 Du        
    501 ****       -32.7500   5.2500  12.5000 Du        
    502 ****       -32.7500   5.2500  12.7500 Du        
    503 ****       -32.7500   5.2500  13.0000 Du        
    504 ****       -32.7500   5.5000  10.7500 Du        
    505 ****       -32.7500   5.5000  11.0000 Du        
    506 ****       -32.7500   5.5000  11.2500 Du        
    507 ****       -32.7500   5.5000  11.5000 Du        
    508 ****       -32.7500   5.5000  11.7500 Du        
    509 ****       -32.7500   5.5000  12.0000 Du        
    510 ****       -32.7500   5.7500  10.5000 Du        
    511 ****       -32.7500   5.7500  10.7500 Du        
    512 ****       -32.7500   5.7500  11.0000 Du        
    513 ****       -32.7500   5.7500  11.2500 Du        
    514 ****       -32.7500   5.7500  11.5000 Du        
    515 ****       -32.7500   5.7500  11.7500 Du        
    516 ****       -32.7500   7.0000  13.7500 Du        
    517 ****       -32.7500   7.0000  14.0000 Du        
    518 ****       -32.7500   7.0000  14.2500 Du        
    519 ****       -32.7500   7.0000  14.5000 Du        
    520 ****       -32.7500   7.0000  14.7500 Du        
    521 ****       -32.7500   7.2500  13.5000 Du        
    522 ****       -32.7500   7.2500  13.7500 Du        
    523 ****       -32.7500   7.2500  14.0000 Du        
    524 ****       -32.7500   7.2500  14.2500 Du        
    525 ****       -32.7500   7.2500  14.5000 Du        
    526 ****       -32.7500   7.2500  14.7500 Du        
    527 ****       -32.7500   7.2500  15.0000 Du        
    528 ****       -32.7500   7.5000  13.7500 Du        
    529 ****       -32.7500   7.5000  14.0000 Du        
    530 ****       -32.7500   7.5000  14.2500 Du        
    531 ****       -32.7500   7.5000  14.5000 Du        
    532 ****       -32.7500   7.5000  14.7500 Du        
    533 ****       -32.7500   7.5000  15.0000 Du        
    534 ****       -32.7500   7.5000  15.2500 Du        
    535 ****       -32.7500   7.7500  13.7500 Du        
    536 ****       -32.7500   7.7500  14.0000 Du        
    537 ****       -32.7500   7.7500  14.2500 Du        
    538 ****       -32.7500   7.7500  14.5000 Du        
    539 ****       -32.7500   7.7500  14.7500 Du        
    540 ****       -32.7500   7.7500  15.0000 Du        
    541 ****       -32.7500   7.7500  15.2500 Du        
    542 ****       -32.7500   8.0000  14.0000 Du        
    543 ****       -32.7500   8.0000  14.2500 Du        
    544 ****       -32.7500   8.0000  14.5000 Du        
    545 ****       -32.7500   8.0000  14.7500 Du        
    546 ****       -32.7500   8.0000  15.0000 Du        
    547 ****       -32.7500   8.0000  15.2500 Du        
    548 ****       -32.7500   8.0000  15.5000 Du        
    549 ****       -32.7500   8.2500  14.0000 Du        
    550 ****       -32.7500   8.2500  14.2500 Du        
    551 ****       -32.7500   8.2500  14.5000 Du        
    552 ****       -32.7500   8.2500  14.7500 Du        
    553 ****       -32.7500   8.2500  15.0000 Du        
    554 ****       -32.7500   8.2500  15.2500 Du        
    555 ****       -32.7500   8.2500  15.5000 Du        
    556 ****       -32.7500   8.5000  14.5000 Du        
    557 ****       -32.7500   8.5000  14.7500 Du        
    558 ****       -32.7500   8.5000  15.0000 Du        
    559 ****       -32.7500   8.5000  15.2500 Du        
    560 ****       -32.7500   8.5000  15.5000 Du        
    561 ****       -32.7500   8.7500  14.7500 Du        
    562 ****       -32.7500   8.7500  15.0000 Du        
    563 ****       -32.7500   8.7500  15.2500 Du        
    564 ****       -32.7500   8.7500  15.5000 Du        
    565 ****       -32.7500   8.7500  15.7500 Du        
    566 ****       -32.7500   9.0000  14.7500 Du        
    567 ****       -32.7500   9.0000  15.0000 Du        
    568 ****       -32.7500   9.0000  15.2500 Du        
    569 ****       -32.7500   9.0000  15.5000 Du        
    570 ****       -32.7500   9.0000  15.7500 Du        
    571 ****       -32.7500   9.0000  16.0000 Du        
    572 ****       -32.7500   9.2500  14.7500 Du        
    573 ****       -32.7500   9.2500  15.0000 Du        
    574 ****       -32.7500   9.2500  15.2500 Du        
    575 ****       -32.7500   9.2500  15.5000 Du        
    576 ****       -32.7500   9.2500  15.7500 Du        
    577 ****       -32.7500   9.2500  16.0000 Du        
    578 ****       -32.7500   9.2500  16.2500 Du        
    579 ****       -32.7500   9.5000  15.0000 Du        
    580 ****       -32.7500   9.5000  15.2500 Du        
    581 ****       -32.7500   9.5000  15.5000 Du        
    582 ****       -32.7500   9.5000  15.7500 Du        
    583 ****       -32.7500   9.5000  16.0000 Du        
    584 ****       -32.7500   9.5000  16.2500 Du        
    585 ****       -32.7500   9.5000  16.5000 Du        
    586 ****       -32.7500   9.7500  15.0000 Du        
    587 ****       -32.7500   9.7500  15.2500 Du        
    588 ****       -32.7500   9.7500  15.5000 Du        
    589 ****       -32.7500   9.7500  15.7500 Du        
    590 ****       -32.7500   9.7500  16.0000 Du        
    591 ****       -32.7500   9.7500  16.2500 Du        
    592 ****       -32.7500   9.7500  16.5000 Du        
    593 ****       -32.7500   9.7500  16.7500 Du        
    594 ****       -32.7500   9.7500  17.0000 Du        
    595 ****       -32.7500   9.7500  17.2500 Du        
    596 ****       -32.7500  10.0000  15.2500 Du        
    597 ****       -32.7500  10.0000  15.5000 Du        
    598 ****       -32.7500  10.0000  15.7500 Du        
    599 ****       -32.7500  10.0000  16.0000 Du        
    600 ****       -32.7500  10.0000  16.2500 Du        
    601 ****       -32.7500  10.0000  16.5000 Du        
    602 ****       -32.7500  10.0000  16.7500 Du        
    603 ****       -32.7500  10.0000  17.0000 Du        
    604 ****       -32.7500  10.0000  17.2500 Du        
    605 ****       -32.7500  10.0000  17.5000 Du        
    606 ****       -32.7500  10.0000  17.7500 Du        
    607 ****       -32.7500  10.0000  18.0000 Du        
    608 ****       -32.7500  10.2500  15.5000 Du        
    609 ****       -32.7500  10.2500  15.7500 Du        
    610 ****       -32.7500  10.2500  16.0000 Du        
    611 ****       -32.7500  10.2500  16.2500 Du        
    612 ****       -32.7500  10.2500  16.5000 Du        
    613 ****       -32.7500  10.2500  16.7500 Du        
    614 ****       -32.7500  10.2500  17.0000 Du        
    615 ****       -32.7500  10.2500  17.2500 Du        
    616 ****       -32.7500  10.2500  17.5000 Du        
    617 ****       -32.7500  10.2500  17.7500 Du        
    618 ****       -32.7500  10.2500  18.0000 Du        
    619 ****       -32.7500  10.5000  15.5000 Du        
    620 ****       -32.7500  10.5000  15.7500 Du        
    621 ****       -32.7500  10.5000  16.0000 Du        
    622 ****       -32.7500  10.5000  16.2500 Du        
    623 ****       -32.7500  10.5000  16.5000 Du        
    624 ****       -32.7500  10.5000  16.7500 Du        
    625 ****       -32.7500  10.5000  17.0000 Du        
    626 ****       -32.7500  10.5000  17.2500 Du        
    627 ****       -32.7500  10.5000  17.5000 Du        
    628 ****       -32.7500  10.5000  17.7500 Du        
    629 ****       -32.7500  10.5000  18.0000 Du        
    630 ****       -32.7500  10.7500  15.7500 Du        
    631 ****       -32.7500  10.7500  16.0000 Du        
    632 ****       -32.7500  10.7500  16.2500 Du        
    633 ****       -32.7500  10.7500  16.5000 Du        
    634 ****       -32.7500  10.7500  16.7500 Du        
    635 ****       -32.7500  10.7500  17.0000 Du        
    636 ****       -32.7500  10.7500  17.2500 Du        
    637 ****       -32.7500  10.7500  17.5000 Du        
    638 ****       -32.7500  10.7500  17.7500 Du        
    639 ****       -32.7500  10.7500  18.0000 Du        
    640 ****       -32.7500  11.0000  15.7500 Du        
    641 ****       -32.7500  11.0000  16.0000 Du        
    642 ****       -32.7500  11.0000  16.2500 Du        
    643 ****       -32.7500  11.0000  16.5000 Du        
    644 ****       -32.7500  11.0000  16.7500 Du        
    645 ****       -32.7500  11.0000  17.0000 Du        
    646 ****       -32.7500  11.0000  17.2500 Du        
    647 ****       -32.7500  11.0000  17.5000 Du        
    648 ****       -32.7500  11.0000  17.7500 Du        
    649 ****       -32.7500  11.0000  18.0000 Du        
    650 ****       -32.7500  11.2500  16.0000 Du        
    651 ****       -32.7500  11.2500  16.2500 Du        
    652 ****       -32.7500  11.2500  16.5000 Du        
    653 ****       -32.7500  11.2500  16.7500 Du        
    654 ****       -32.7500  11.2500  17.0000 Du        
    655 ****       -32.7500  11.2500  17.2500 Du        
    656 ****       -32.7500  11.2500  17.5000 Du        
    657 ****       -32.7500  11.2500  17.7500 Du        
    658 ****       -32.7500  11.2500  18.0000 Du        
    659 ****       -32.7500  11.5000  16.2500 Du        
    660 ****       -32.7500  11.5000  16.5000 Du        
    661 ****       -32.7500  11.5000  16.7500 Du        
    662 ****       -32.7500  11.5000  17.0000 Du        
    663 ****       -32.7500  11.5000  17.2500 Du        
    664 ****       -32.7500  11.5000  17.5000 Du        
    665 ****       -32.7500  11.5000  17.7500 Du        
    666 ****       -32.7500  11.7500  16.2500 Du        
    667 ****       -32.7500  11.7500  16.5000 Du        
    668 ****       -32.7500  11.7500  16.7500 Du        
    669 ****       -32.7500  11.7500  17.0000 Du        
    670 ****       -32.7500  11.7500  17.2500 Du        
    671 ****       -32.7500  11.7500  17.5000 Du        
    672 ****       -32.7500  11.7500  17.7500 Du        
    673 ****       -32.7500  12.0000  16.5000 Du        
    674 ****       -32.7500  12.0000  16.7500 Du        
    675 ****       -32.7500  12.0000  17.0000 Du        
    676 ****       -32.7500  12.0000  17.2500 Du        
    677 ****       -32.7500  12.0000  17.5000 Du        
    678 ****       -32.7500  12.0000  17.7500 Du        
    679 ****       -32.7500  12.2500  16.5000 Du        
    680 ****       -32.7500  12.2500  16.7500 Du        
    681 ****       -32.7500  12.2500  17.0000 Du        
    682 ****       -32.7500  12.2500  17.2500 Du        
    683 ****       -32.7500  12.2500  17.5000 Du        
    684 ****       -32.7500  12.2500  17.7500 Du        
    685 ****       -32.7500  12.5000  16.7500 Du        
    686 ****       -32.7500  12.5000  17.0000 Du        
    687 ****       -32.7500  12.5000  17.2500 Du        
    688 ****       -32.7500  12.5000  17.5000 Du        
    689 ****       -32.7500  12.5000  17.7500 Du        
    690 ****       -32.7500  12.7500  16.7500 Du        
    691 ****       -32.7500  12.7500  17.0000 Du        
    692 ****       -32.7500  12.7500  17.2500 Du        
    693 ****       -32.7500  12.7500  17.5000 Du        
    694 ****       -32.7500  12.7500  17.7500 Du        
    695 ****       -32.7500  13.0000  17.0000 Du        
    696 ****       -32.7500  13.0000  17.2500 Du        
    697 ****       -32.7500  13.0000  17.5000 Du        
    698 ****       -32.7500  13.0000  17.7500 Du        
    699 ****       -32.7500  13.2500  17.2500 Du        
    700 ****       -32.7500  13.2500  17.5000 Du        
    701 ****       -32.7500  13.2500  17.7500 Du        
    702 ****       -32.5000  -1.0000   4.0000 Du        
    703 ****       -32.5000  -1.0000   4.2500 Du        
    704 ****       -32.5000  -1.0000   4.5000 Du        
    705 ****       -32.5000  -1.0000   4.7500 Du        
    706 ****       -32.5000  -1.0000   5.0000 Du        
    707 ****       -32.5000  -1.0000   5.2500 Du        
    708 ****       -32.5000  -0.7500   4.0000 Du        
    709 ****       -32.5000  -0.7500   4.2500 Du        
    710 ****       -32.5000  -0.7500   4.5000 Du        
    711 ****       -32.5000  -0.7500   4.7500 Du        
    712 ****       -32.5000  -0.7500   5.0000 Du        
    713 ****       -32.5000  -0.7500   5.2500 Du        
    714 ****       -32.5000  -0.7500   5.5000 Du        
    715 ****       -32.5000  -0.7500   5.7500 Du        
    716 ****       -32.5000  -0.5000   4.0000 Du        
    717 ****       -32.5000  -0.5000   4.2500 Du        
    718 ****       -32.5000  -0.5000   4.5000 Du        
    719 ****       -32.5000  -0.5000   4.7500 Du        
    720 ****       -32.5000  -0.5000   5.0000 Du        
    721 ****       -32.5000  -0.5000   5.2500 Du        
    722 ****       -32.5000  -0.5000   5.5000 Du        
    723 ****       -32.5000  -0.2500   4.2500 Du        
    724 ****       -32.5000  -0.2500   4.5000 Du        
    725 ****       -32.5000  -0.2500   4.7500 Du        
    726 ****       -32.5000   5.0000  11.5000 Du        
    727 ****       -32.5000   5.0000  11.7500 Du        
    728 ****       -32.5000   5.0000  12.0000 Du        
    729 ****       -32.5000   5.0000  12.2500 Du        
    730 ****       -32.5000   5.0000  12.5000 Du        
    731 ****       -32.5000   5.0000  12.7500 Du        
    732 ****       -32.5000   5.0000  13.0000 Du        
    733 ****       -32.5000   5.0000  13.2500 Du        
    734 ****       -32.5000   5.2500  11.0000 Du        
    735 ****       -32.5000   5.2500  11.2500 Du        
    736 ****       -32.5000   5.2500  11.5000 Du        
    737 ****       -32.5000   5.2500  11.7500 Du        
    738 ****       -32.5000   5.2500  12.0000 Du        
    739 ****       -32.5000   5.2500  12.2500 Du        
    740 ****       -32.5000   5.2500  12.5000 Du        
    741 ****       -32.5000   5.2500  12.7500 Du        
    742 ****       -32.5000   5.2500  13.0000 Du        
    743 ****       -32.5000   5.2500  13.2500 Du        
    744 ****       -32.5000   5.5000  11.0000 Du        
    745 ****       -32.5000   5.5000  11.2500 Du        
    746 ****       -32.5000   5.5000  11.5000 Du        
    747 ****       -32.5000   5.5000  11.7500 Du        
    748 ****       -32.5000   5.5000  12.0000 Du        
    749 ****       -32.5000   5.5000  12.2500 Du        
    750 ****       -32.5000   5.5000  12.5000 Du        
    751 ****       -32.5000   5.5000  12.7500 Du        
    752 ****       -32.5000   5.5000  13.0000 Du        
    753 ****       -32.5000   5.5000  13.2500 Du        
    754 ****       -32.5000   5.7500  10.7500 Du        
    755 ****       -32.5000   5.7500  11.0000 Du        
    756 ****       -32.5000   5.7500  11.2500 Du        
    757 ****       -32.5000   5.7500  11.5000 Du        
    758 ****       -32.5000   5.7500  11.7500 Du        
    759 ****       -32.5000   5.7500  12.0000 Du        
    760 ****       -32.5000   5.7500  12.2500 Du        
    761 ****       -32.5000   5.7500  12.5000 Du        
    762 ****       -32.5000   5.7500  12.7500 Du        
    763 ****       -32.5000   5.7500  13.0000 Du        
    764 ****       -32.5000   5.7500  13.2500 Du        
    765 ****       -32.5000   6.0000  10.7500 Du        
    766 ****       -32.5000   6.0000  11.0000 Du        
    767 ****       -32.5000   6.0000  11.5000 Du        
    768 ****       -32.5000   6.0000  11.7500 Du        
    769 ****       -32.5000   6.0000  12.0000 Du        
    770 ****       -32.5000   6.0000  12.2500 Du        
    771 ****       -32.5000   6.0000  12.5000 Du        
    772 ****       -32.5000   6.0000  12.7500 Du        
    773 ****       -32.5000   6.0000  13.0000 Du        
    774 ****       -32.5000   6.0000  13.2500 Du        
    775 ****       -32.5000   6.0000  13.5000 Du        
    776 ****       -32.5000   6.2500  11.5000 Du        
    777 ****       -32.5000   6.2500  11.7500 Du        
    778 ****       -32.5000   6.2500  12.0000 Du        
    779 ****       -32.5000   6.2500  12.2500 Du        
    780 ****       -32.5000   6.2500  12.5000 Du        
    781 ****       -32.5000   6.2500  12.7500 Du        
    782 ****       -32.5000   6.2500  13.0000 Du        
    783 ****       -32.5000   6.2500  13.2500 Du        
    784 ****       -32.5000   6.2500  13.5000 Du        
    785 ****       -32.5000   6.5000  12.5000 Du        
    786 ****       -32.5000   6.5000  12.7500 Du        
    787 ****       -32.5000   6.5000  13.0000 Du        
    788 ****       -32.5000   6.5000  13.2500 Du        
    789 ****       -32.5000   6.5000  13.5000 Du        
    790 ****       -32.5000   6.5000  13.7500 Du        
    791 ****       -32.5000   6.7500  12.7500 Du        
    792 ****       -32.5000   6.7500  13.0000 Du        
    793 ****       -32.5000   6.7500  13.2500 Du        
    794 ****       -32.5000   6.7500  13.5000 Du        
    795 ****       -32.5000   6.7500  13.7500 Du        
    796 ****       -32.5000   6.7500  14.0000 Du        
    797 ****       -32.5000   7.0000  13.0000 Du        
    798 ****       -32.5000   7.0000  13.2500 Du        
    799 ****       -32.5000   7.0000  13.5000 Du        
    800 ****       -32.5000   7.0000  13.7500 Du        
    801 ****       -32.5000   7.0000  14.0000 Du        
    802 ****       -32.5000   7.0000  14.2500 Du        
    803 ****       -32.5000   7.0000  14.5000 Du        
    804 ****       -32.5000   7.0000  14.7500 Du        
    805 ****       -32.5000   7.0000  15.0000 Du        
    806 ****       -32.5000   7.2500  13.0000 Du        
    807 ****       -32.5000   7.2500  13.2500 Du        
    808 ****       -32.5000   7.2500  13.5000 Du        
    809 ****       -32.5000   7.2500  13.7500 Du        
    810 ****       -32.5000   7.2500  14.0000 Du        
    811 ****       -32.5000   7.2500  14.2500 Du        
    812 ****       -32.5000   7.2500  14.5000 Du        
    813 ****       -32.5000   7.2500  14.7500 Du        
    814 ****       -32.5000   7.2500  15.0000 Du        
    815 ****       -32.5000   7.2500  15.2500 Du        
    816 ****       -32.5000   7.2500  15.5000 Du        
    817 ****       -32.5000   7.5000  13.7500 Du        
    818 ****       -32.5000   7.5000  14.0000 Du        
    819 ****       -32.5000   7.5000  14.2500 Du        
    820 ****       -32.5000   7.5000  14.5000 Du        
    821 ****       -32.5000   7.5000  14.7500 Du        
    822 ****       -32.5000   7.5000  15.0000 Du        
    823 ****       -32.5000   7.5000  15.2500 Du        
    824 ****       -32.5000   7.5000  15.5000 Du        
    825 ****       -32.5000   7.7500  13.7500 Du        
    826 ****       -32.5000   7.7500  14.0000 Du        
    827 ****       -32.5000   7.7500  14.2500 Du        
    828 ****       -32.5000   7.7500  14.5000 Du        
    829 ****       -32.5000   7.7500  14.7500 Du        
    830 ****       -32.5000   7.7500  15.0000 Du        
    831 ****       -32.5000   7.7500  15.2500 Du        
    832 ****       -32.5000   7.7500  15.5000 Du        
    833 ****       -32.5000   8.0000  14.0000 Du        
    834 ****       -32.5000   8.0000  14.2500 Du        
    835 ****       -32.5000   8.0000  14.5000 Du        
    836 ****       -32.5000   8.0000  14.7500 Du        
    837 ****       -32.5000   8.0000  15.0000 Du        
    838 ****       -32.5000   8.0000  15.2500 Du        
    839 ****       -32.5000   8.0000  15.5000 Du        
    840 ****       -32.5000   8.2500  14.0000 Du        
    841 ****       -32.5000   8.2500  14.2500 Du        
    842 ****       -32.5000   8.2500  14.5000 Du        
    843 ****       -32.5000   8.2500  14.7500 Du        
    844 ****       -32.5000   8.2500  15.0000 Du        
    845 ****       -32.5000   8.2500  15.2500 Du        
    846 ****       -32.5000   8.2500  15.5000 Du        
    847 ****       -32.5000   8.2500  15.7500 Du        
    848 ****       -32.5000   8.5000  14.5000 Du        
    849 ****       -32.5000   8.5000  14.7500 Du        
    850 ****       -32.5000   8.5000  15.0000 Du        
    851 ****       -32.5000   8.5000  15.2500 Du        
    852 ****       -32.5000   8.5000  15.5000 Du        
    853 ****       -32.5000   8.5000  15.7500 Du        
    854 ****       -32.5000   8.7500  14.5000 Du        
    855 ****       -32.5000   8.7500  14.7500 Du        
    856 ****       -32.5000   8.7500  15.0000 Du        
    857 ****       -32.5000   8.7500  15.2500 Du        
    858 ****       -32.5000   8.7500  15.5000 Du        
    859 ****       -32.5000   8.7500  15.7500 Du        
    860 ****       -32.5000   9.0000  14.5000 Du        
    861 ****       -32.5000   9.0000  14.7500 Du        
    862 ****       -32.5000   9.0000  15.0000 Du        
    863 ****       -32.5000   9.0000  15.2500 Du        
    864 ****       -32.5000   9.0000  15.5000 Du        
    865 ****       -32.5000   9.0000  15.7500 Du        
    866 ****       -32.5000   9.0000  16.0000 Du        
    867 ****       -32.5000   9.2500  14.7500 Du        
    868 ****       -32.5000   9.2500  15.0000 Du        
    869 ****       -32.5000   9.2500  15.2500 Du        
    870 ****       -32.5000   9.2500  15.5000 Du        
    871 ****       -32.5000   9.2500  15.7500 Du        
    872 ****       -32.5000   9.2500  16.0000 Du        
    873 ****       -32.5000   9.2500  16.2500 Du        
    874 ****       -32.5000   9.2500  16.5000 Du        
    875 ****       -32.5000   9.5000  15.0000 Du        
    876 ****       -32.5000   9.5000  15.2500 Du        
    877 ****       -32.5000   9.5000  15.5000 Du        
    878 ****       -32.5000   9.5000  15.7500 Du        
    879 ****       -32.5000   9.5000  16.0000 Du        
    880 ****       -32.5000   9.5000  16.2500 Du        
    881 ****       -32.5000   9.5000  16.5000 Du        
    882 ****       -32.5000   9.5000  16.7500 Du        
    883 ****       -32.5000   9.5000  17.0000 Du        
    884 ****       -32.5000   9.7500  15.2500 Du        
    885 ****       -32.5000   9.7500  15.5000 Du        
    886 ****       -32.5000   9.7500  15.7500 Du        
    887 ****       -32.5000   9.7500  16.0000 Du        
    888 ****       -32.5000   9.7500  16.2500 Du        
    889 ****       -32.5000   9.7500  16.5000 Du        
    890 ****       -32.5000   9.7500  16.7500 Du        
    891 ****       -32.5000   9.7500  17.0000 Du        
    892 ****       -32.5000   9.7500  17.2500 Du        
    893 ****       -32.5000   9.7500  17.5000 Du        
    894 ****       -32.5000   9.7500  17.7500 Du        
    895 ****       -32.5000   9.7500  18.0000 Du        
    896 ****       -32.5000  10.0000  15.5000 Du        
    897 ****       -32.5000  10.0000  15.7500 Du        
    898 ****       -32.5000  10.0000  16.0000 Du        
    899 ****       -32.5000  10.0000  16.2500 Du        
    900 ****       -32.5000  10.0000  16.5000 Du        
    901 ****       -32.5000  10.0000  16.7500 Du        
    902 ****       -32.5000  10.0000  17.0000 Du        
    903 ****       -32.5000  10.0000  17.2500 Du        
    904 ****       -32.5000  10.0000  17.5000 Du        
    905 ****       -32.5000  10.0000  17.7500 Du        
    906 ****       -32.5000  10.0000  18.0000 Du        
    907 ****       -32.5000  10.2500  15.5000 Du        
    908 ****       -32.5000  10.2500  15.7500 Du        
    909 ****       -32.5000  10.2500  16.0000 Du        
    910 ****       -32.5000  10.2500  16.2500 Du        
    911 ****       -32.5000  10.2500  16.5000 Du        
    912 ****       -32.5000  10.2500  16.7500 Du        
    913 ****       -32.5000  10.2500  17.0000 Du        
    914 ****       -32.5000  10.2500  17.2500 Du        
    915 ****       -32.5000  10.2500  17.5000 Du        
    916 ****       -32.5000  10.2500  17.7500 Du        
    917 ****       -32.5000  10.2500  18.0000 Du        
    918 ****       -32.5000  10.5000  15.7500 Du        
    919 ****       -32.5000  10.5000  16.0000 Du        
    920 ****       -32.5000  10.5000  16.2500 Du        
    921 ****       -32.5000  10.5000  16.5000 Du        
    922 ****       -32.5000  10.5000  16.7500 Du        
    923 ****       -32.5000  10.5000  17.0000 Du        
    924 ****       -32.5000  10.5000  17.2500 Du        
    925 ****       -32.5000  10.5000  17.5000 Du        
    926 ****       -32.5000  10.5000  17.7500 Du        
    927 ****       -32.5000  10.5000  18.0000 Du        
    928 ****       -32.5000  10.7500  15.7500 Du        
    929 ****       -32.5000  10.7500  16.0000 Du        
    930 ****       -32.5000  10.7500  16.2500 Du        
    931 ****       -32.5000  10.7500  16.5000 Du        
    932 ****       -32.5000  10.7500  16.7500 Du        
    933 ****       -32.5000  10.7500  17.0000 Du        
    934 ****       -32.5000  10.7500  17.2500 Du        
    935 ****       -32.5000  10.7500  17.5000 Du        
    936 ****       -32.5000  10.7500  17.7500 Du        
    937 ****       -32.5000  10.7500  18.0000 Du        
    938 ****       -32.5000  11.0000  16.0000 Du        
    939 ****       -32.5000  11.0000  16.2500 Du        
    940 ****       -32.5000  11.0000  16.5000 Du        
    941 ****       -32.5000  11.0000  16.7500 Du        
    942 ****       -32.5000  11.0000  17.0000 Du        
    943 ****       -32.5000  11.0000  17.2500 Du        
    944 ****       -32.5000  11.0000  17.5000 Du        
    945 ****       -32.5000  11.0000  17.7500 Du        
    946 ****       -32.5000  11.2500  16.5000 Du        
    947 ****       -32.5000  11.2500  16.7500 Du        
    948 ****       -32.5000  11.2500  17.0000 Du        
    949 ****       -32.5000  11.2500  17.2500 Du        
    950 ****       -32.5000  11.2500  17.5000 Du        
    951 ****       -32.5000  11.2500  17.7500 Du        
    952 ****       -32.5000  11.5000  16.5000 Du        
    953 ****       -32.5000  11.5000  16.7500 Du        
    954 ****       -32.5000  11.5000  17.0000 Du        
    955 ****       -32.5000  11.5000  17.2500 Du        
    956 ****       -32.5000  11.5000  17.5000 Du        
    957 ****       -32.5000  11.5000  17.7500 Du        
    958 ****       -32.5000  11.7500  16.5000 Du        
    959 ****       -32.5000  11.7500  16.7500 Du        
    960 ****       -32.5000  11.7500  17.0000 Du        
    961 ****       -32.5000  11.7500  17.2500 Du        
    962 ****       -32.5000  11.7500  17.5000 Du        
    963 ****       -32.5000  11.7500  17.7500 Du        
    964 ****       -32.5000  12.0000  16.5000 Du        
    965 ****       -32.5000  12.0000  16.7500 Du        
    966 ****       -32.5000  12.0000  17.0000 Du        
    967 ****       -32.5000  12.0000  17.2500 Du        
    968 ****       -32.5000  12.0000  17.5000 Du        
    969 ****       -32.5000  12.0000  17.7500 Du        
    970 ****       -32.5000  12.2500  16.5000 Du        
    971 ****       -32.5000  12.2500  16.7500 Du        
    972 ****       -32.5000  12.2500  17.0000 Du        
    973 ****       -32.5000  12.2500  17.2500 Du        
    974 ****       -32.5000  12.2500  17.5000 Du        
    975 ****       -32.5000  12.2500  17.7500 Du        
    976 ****       -32.5000  12.5000  17.2500 Du        
    977 ****       -32.5000  12.5000  17.5000 Du        
    978 ****       -32.5000  12.5000  17.7500 Du        
    979 ****       -32.5000  12.7500  17.2500 Du        
    980 ****       -32.5000  12.7500  17.5000 Du        
    981 ****       -32.5000  12.7500  17.7500 Du        
    982 ****       -32.5000  13.0000  17.5000 Du        
    983 ****       -32.5000  13.0000  17.7500 Du        
    984 ****       -32.5000  13.2500  17.5000 Du        
    985 ****       -32.5000  13.2500  17.7500 Du        
    986 ****       -32.2500  -1.2500   3.5000 Du        
    987 ****       -32.2500  -1.2500   3.7500 Du        
    988 ****       -32.2500  -1.2500   4.0000 Du        
    989 ****       -32.2500  -1.2500   4.2500 Du        
    990 ****       -32.2500  -1.2500   4.5000 Du        
    991 ****       -32.2500  -1.2500   4.7500 Du        
    992 ****       -32.2500  -1.2500   5.0000 Du        
    993 ****       -32.2500  -1.0000   3.7500 Du        
    994 ****       -32.2500  -1.0000   4.0000 Du        
    995 ****       -32.2500  -1.0000   4.2500 Du        
    996 ****       -32.2500  -1.0000   4.5000 Du        
    997 ****       -32.2500  -1.0000   4.7500 Du        
    998 ****       -32.2500  -1.0000   5.0000 Du        
    999 ****       -32.2500  -1.0000   5.2500 Du        
   1000 ****       -32.2500  -1.0000   5.5000 Du        
   1001 ****       -32.2500  -1.0000   5.7500 Du        
   1002 ****       -32.2500  -0.7500   3.7500 Du        
   1003 ****       -32.2500  -0.7500   4.0000 Du        
   1004 ****       -32.2500  -0.7500   4.2500 Du        
   1005 ****       -32.2500  -0.7500   4.5000 Du        
   1006 ****       -32.2500  -0.7500   4.7500 Du        
   1007 ****       -32.2500  -0.7500   5.0000 Du        
   1008 ****       -32.2500  -0.7500   5.2500 Du        
   1009 ****       -32.2500  -0.7500   5.5000 Du        
   1010 ****       -32.2500  -0.5000   4.0000 Du        
   1011 ****       -32.2500  -0.5000   4.2500 Du        
   1012 ****       -32.2500  -0.5000   4.5000 Du        
   1013 ****       -32.2500  -0.5000   4.7500 Du        
   1014 ****       -32.2500  -0.5000   5.0000 Du        
   1015 ****       -32.2500  -0.2500   4.2500 Du        
   1016 ****       -32.2500  -0.2500   4.5000 Du        
   1017 ****       -32.2500   5.0000  11.7500 Du        
   1018 ****       -32.2500   5.0000  12.0000 Du        
   1019 ****       -32.2500   5.0000  12.2500 Du        
   1020 ****       -32.2500   5.0000  12.5000 Du        
   1021 ****       -32.2500   5.0000  12.7500 Du        
   1022 ****       -32.2500   5.0000  13.0000 Du        
   1023 ****       -32.2500   5.0000  13.2500 Du        
   1024 ****       -32.2500   5.2500  11.2500 Du        
   1025 ****       -32.2500   5.2500  11.5000 Du        
   1026 ****       -32.2500   5.2500  11.7500 Du        
   1027 ****       -32.2500   5.2500  12.0000 Du        
   1028 ****       -32.2500   5.2500  12.2500 Du        
   1029 ****       -32.2500   5.2500  12.5000 Du        
   1030 ****       -32.2500   5.2500  12.7500 Du        
   1031 ****       -32.2500   5.2500  13.0000 Du        
   1032 ****       -32.2500   5.2500  13.2500 Du        
   1033 ****       -32.2500   5.5000  11.0000 Du        
   1034 ****       -32.2500   5.5000  11.2500 Du        
   1035 ****       -32.2500   5.5000  11.5000 Du        
   1036 ****       -32.2500   5.5000  11.7500 Du        
   1037 ****       -32.2500   5.5000  12.0000 Du        
   1038 ****       -32.2500   5.5000  12.2500 Du        
   1039 ****       -32.2500   5.5000  12.5000 Du        
   1040 ****       -32.2500   5.5000  12.7500 Du        
   1041 ****       -32.2500   5.5000  13.0000 Du        
   1042 ****       -32.2500   5.5000  13.2500 Du        
   1043 ****       -32.2500   5.7500  10.7500 Du        
   1044 ****       -32.2500   5.7500  11.0000 Du        
   1045 ****       -32.2500   5.7500  11.2500 Du        
   1046 ****       -32.2500   5.7500  11.5000 Du        
   1047 ****       -32.2500   5.7500  11.7500 Du        
   1048 ****       -32.2500   5.7500  12.0000 Du        
   1049 ****       -32.2500   5.7500  12.2500 Du        
   1050 ****       -32.2500   5.7500  12.5000 Du        
   1051 ****       -32.2500   5.7500  12.7500 Du        
   1052 ****       -32.2500   5.7500  13.0000 Du        
   1053 ****       -32.2500   5.7500  13.2500 Du        
   1054 ****       -32.2500   6.0000  10.5000 Du        
   1055 ****       -32.2500   6.0000  10.7500 Du        
   1056 ****       -32.2500   6.0000  11.0000 Du        
   1057 ****       -32.2500   6.0000  11.2500 Du        
   1058 ****       -32.2500   6.0000  11.5000 Du        
   1059 ****       -32.2500   6.0000  11.7500 Du        
   1060 ****       -32.2500   6.0000  12.0000 Du        
   1061 ****       -32.2500   6.0000  12.2500 Du        
   1062 ****       -32.2500   6.0000  12.5000 Du        
   1063 ****       -32.2500   6.0000  12.7500 Du        
   1064 ****       -32.2500   6.0000  13.0000 Du        
   1065 ****       -32.2500   6.0000  13.2500 Du        
   1066 ****       -32.2500   6.2500  11.5000 Du        
   1067 ****       -32.2500   6.2500  11.7500 Du        
   1068 ****       -32.2500   6.2500  12.0000 Du        
   1069 ****       -32.2500   6.2500  12.2500 Du        
   1070 ****       -32.2500   6.2500  12.5000 Du        
   1071 ****       -32.2500   6.2500  12.7500 Du        
   1072 ****       -32.2500   6.2500  13.0000 Du        
   1073 ****       -32.2500   6.2500  13.2500 Du        
   1074 ****       -32.2500   6.2500  13.5000 Du        
   1075 ****       -32.2500   6.5000  12.2500 Du        
   1076 ****       -32.2500   6.5000  12.5000 Du        
   1077 ****       -32.2500   6.5000  12.7500 Du        
   1078 ****       -32.2500   6.5000  13.0000 Du        
   1079 ****       -32.2500   6.5000  13.2500 Du        
   1080 ****       -32.2500   6.5000  13.5000 Du        
   1081 ****       -32.2500   6.7500  12.5000 Du        
   1082 ****       -32.2500   6.7500  12.7500 Du        
   1083 ****       -32.2500   6.7500  13.0000 Du        
   1084 ****       -32.2500   6.7500  13.2500 Du        
   1085 ****       -32.2500   6.7500  13.5000 Du        
   1086 ****       -32.2500   6.7500  13.7500 Du        
   1087 ****       -32.2500   6.7500  14.0000 Du        
   1088 ****       -32.2500   7.0000  12.5000 Du        
   1089 ****       -32.2500   7.0000  12.7500 Du        
   1090 ****       -32.2500   7.0000  13.0000 Du        
   1091 ****       -32.2500   7.0000  13.2500 Du        
   1092 ****       -32.2500   7.0000  13.5000 Du        
   1093 ****       -32.2500   7.0000  13.7500 Du        
   1094 ****       -32.2500   7.0000  14.0000 Du        
   1095 ****       -32.2500   7.0000  14.2500 Du        
   1096 ****       -32.2500   7.0000  14.5000 Du        
   1097 ****       -32.2500   7.2500  13.0000 Du        
   1098 ****       -32.2500   7.2500  13.2500 Du        
   1099 ****       -32.2500   7.2500  13.5000 Du        
   1100 ****       -32.2500   7.2500  13.7500 Du        
   1101 ****       -32.2500   7.2500  14.0000 Du        
   1102 ****       -32.2500   7.2500  14.2500 Du        
   1103 ****       -32.2500   7.2500  14.5000 Du        
   1104 ****       -32.2500   7.2500  14.7500 Du        
   1105 ****       -32.2500   7.2500  15.0000 Du        
   1106 ****       -32.2500   7.2500  15.2500 Du        
   1107 ****       -32.2500   7.2500  15.5000 Du        
   1108 ****       -32.2500   7.5000  13.5000 Du        
   1109 ****       -32.2500   7.5000  13.7500 Du        
   1110 ****       -32.2500   7.5000  14.0000 Du        
   1111 ****       -32.2500   7.5000  14.2500 Du        
   1112 ****       -32.2500   7.5000  14.5000 Du        
   1113 ****       -32.2500   7.5000  14.7500 Du        
   1114 ****       -32.2500   7.5000  15.0000 Du        
   1115 ****       -32.2500   7.5000  15.2500 Du        
   1116 ****       -32.2500   7.5000  15.5000 Du        
   1117 ****       -32.2500   7.5000  15.7500 Du        
   1118 ****       -32.2500   7.7500  13.5000 Du        
   1119 ****       -32.2500   7.7500  13.7500 Du        
   1120 ****       -32.2500   7.7500  14.0000 Du        
   1121 ****       -32.2500   7.7500  14.2500 Du        
   1122 ****       -32.2500   7.7500  14.5000 Du        
   1123 ****       -32.2500   7.7500  14.7500 Du        
   1124 ****       -32.2500   7.7500  15.0000 Du        
   1125 ****       -32.2500   7.7500  15.2500 Du        
   1126 ****       -32.2500   7.7500  15.5000 Du        
   1127 ****       -32.2500   7.7500  15.7500 Du        
   1128 ****       -32.2500   8.0000  13.7500 Du        
   1129 ****       -32.2500   8.0000  14.0000 Du        
   1130 ****       -32.2500   8.0000  14.2500 Du        
   1131 ****       -32.2500   8.0000  14.5000 Du        
   1132 ****       -32.2500   8.0000  14.7500 Du        
   1133 ****       -32.2500   8.0000  15.0000 Du        
   1134 ****       -32.2500   8.0000  15.2500 Du        
   1135 ****       -32.2500   8.0000  15.5000 Du        
   1136 ****       -32.2500   8.0000  15.7500 Du        
   1137 ****       -32.2500   8.2500  14.0000 Du        
   1138 ****       -32.2500   8.2500  14.2500 Du        
   1139 ****       -32.2500   8.2500  14.5000 Du        
   1140 ****       -32.2500   8.2500  14.7500 Du        
   1141 ****       -32.2500   8.2500  15.0000 Du        
   1142 ****       -32.2500   8.2500  15.2500 Du        
   1143 ****       -32.2500   8.2500  15.5000 Du        
   1144 ****       -32.2500   8.2500  15.7500 Du        
   1145 ****       -32.2500   8.2500  16.0000 Du        
   1146 ****       -32.2500   8.5000  14.5000 Du        
   1147 ****       -32.2500   8.5000  14.7500 Du        
   1148 ****       -32.2500   8.5000  15.0000 Du        
   1149 ****       -32.2500   8.5000  15.2500 Du        
   1150 ****       -32.2500   8.5000  15.5000 Du        
   1151 ****       -32.2500   8.5000  15.7500 Du        
   1152 ****       -32.2500   8.5000  16.0000 Du        
   1153 ****       -32.2500   8.7500  14.5000 Du        
   1154 ****       -32.2500   8.7500  14.7500 Du        
   1155 ****       -32.2500   8.7500  15.0000 Du        
   1156 ****       -32.2500   8.7500  15.2500 Du        
   1157 ****       -32.2500   8.7500  15.5000 Du        
   1158 ****       -32.2500   8.7500  15.7500 Du        
   1159 ****       -32.2500   8.7500  16.0000 Du        
   1160 ****       -32.2500   8.7500  16.2500 Du        
   1161 ****       -32.2500   9.0000  14.5000 Du        
   1162 ****       -32.2500   9.0000  14.7500 Du        
   1163 ****       -32.2500   9.0000  15.0000 Du        
   1164 ****       -32.2500   9.0000  15.2500 Du        
   1165 ****       -32.2500   9.0000  15.5000 Du        
   1166 ****       -32.2500   9.0000  15.7500 Du        
   1167 ****       -32.2500   9.0000  16.0000 Du        
   1168 ****       -32.2500   9.0000  16.2500 Du        
   1169 ****       -32.2500   9.0000  16.5000 Du        
   1170 ****       -32.2500   9.2500  14.5000 Du        
   1171 ****       -32.2500   9.2500  14.7500 Du        
   1172 ****       -32.2500   9.2500  15.0000 Du        
   1173 ****       -32.2500   9.2500  15.2500 Du        
   1174 ****       -32.2500   9.2500  15.5000 Du        
   1175 ****       -32.2500   9.2500  15.7500 Du        
   1176 ****       -32.2500   9.2500  16.0000 Du        
   1177 ****       -32.2500   9.2500  16.2500 Du        
   1178 ****       -32.2500   9.2500  16.5000 Du        
   1179 ****       -32.2500   9.2500  16.7500 Du        
   1180 ****       -32.2500   9.2500  17.0000 Du        
   1181 ****       -32.2500   9.5000  15.0000 Du        
   1182 ****       -32.2500   9.5000  15.2500 Du        
   1183 ****       -32.2500   9.5000  15.5000 Du        
   1184 ****       -32.2500   9.5000  15.7500 Du        
   1185 ****       -32.2500   9.5000  16.0000 Du        
   1186 ****       -32.2500   9.5000  16.2500 Du        
   1187 ****       -32.2500   9.5000  16.5000 Du        
   1188 ****       -32.2500   9.5000  16.7500 Du        
   1189 ****       -32.2500   9.5000  17.0000 Du        
   1190 ****       -32.2500   9.5000  17.2500 Du        
   1191 ****       -32.2500   9.5000  17.5000 Du        
   1192 ****       -32.2500   9.5000  17.7500 Du        
   1193 ****       -32.2500   9.7500  15.0000 Du        
   1194 ****       -32.2500   9.7500  15.2500 Du        
   1195 ****       -32.2500   9.7500  15.5000 Du        
   1196 ****       -32.2500   9.7500  15.7500 Du        
   1197 ****       -32.2500   9.7500  16.0000 Du        
   1198 ****       -32.2500   9.7500  16.2500 Du        
   1199 ****       -32.2500   9.7500  16.5000 Du        
   1200 ****       -32.2500   9.7500  16.7500 Du        
   1201 ****       -32.2500   9.7500  17.0000 Du        
   1202 ****       -32.2500   9.7500  17.2500 Du        
   1203 ****       -32.2500   9.7500  17.5000 Du        
   1204 ****       -32.2500   9.7500  17.7500 Du        
   1205 ****       -32.2500   9.7500  18.0000 Du        
   1206 ****       -32.2500  10.0000  15.5000 Du        
   1207 ****       -32.2500  10.0000  15.7500 Du        
   1208 ****       -32.2500  10.0000  16.0000 Du        
   1209 ****       -32.2500  10.0000  16.2500 Du        
   1210 ****       -32.2500  10.0000  16.5000 Du        
   1211 ****       -32.2500  10.0000  16.7500 Du        
   1212 ****       -32.2500  10.0000  17.0000 Du        
   1213 ****       -32.2500  10.0000  17.2500 Du        
   1214 ****       -32.2500  10.0000  17.5000 Du        
   1215 ****       -32.2500  10.0000  17.7500 Du        
   1216 ****       -32.2500  10.0000  18.0000 Du        
   1217 ****       -32.2500  10.2500  15.5000 Du        
   1218 ****       -32.2500  10.2500  15.7500 Du        
   1219 ****       -32.2500  10.2500  16.0000 Du        
   1220 ****       -32.2500  10.2500  16.2500 Du        
   1221 ****       -32.2500  10.2500  16.5000 Du        
   1222 ****       -32.2500  10.2500  16.7500 Du        
   1223 ****       -32.2500  10.2500  17.0000 Du        
   1224 ****       -32.2500  10.2500  17.2500 Du        
   1225 ****       -32.2500  10.2500  17.5000 Du        
   1226 ****       -32.2500  10.2500  17.7500 Du        
   1227 ****       -32.2500  10.2500  18.0000 Du        
   1228 ****       -32.2500  10.5000  15.7500 Du        
   1229 ****       -32.2500  10.5000  16.0000 Du        
   1230 ****       -32.2500  10.5000  16.2500 Du        
   1231 ****       -32.2500  10.5000  16.5000 Du        
   1232 ****       -32.2500  10.5000  16.7500 Du        
   1233 ****       -32.2500  10.5000  17.0000 Du        
   1234 ****       -32.2500  10.5000  17.2500 Du        
   1235 ****       -32.2500  10.5000  17.5000 Du        
   1236 ****       -32.2500  10.5000  17.7500 Du        
   1237 ****       -32.2500  10.7500  16.5000 Du        
   1238 ****       -32.2500  10.7500  16.7500 Du        
   1239 ****       -32.2500  10.7500  17.0000 Du        
   1240 ****       -32.2500  10.7500  17.2500 Du        
   1241 ****       -32.2500  10.7500  17.5000 Du        
   1242 ****       -32.2500  10.7500  17.7500 Du        
   1243 ****       -32.2500  11.0000  16.5000 Du        
   1244 ****       -32.2500  11.0000  16.7500 Du        
   1245 ****       -32.2500  11.0000  17.0000 Du        
   1246 ****       -32.2500  11.0000  17.2500 Du        
   1247 ****       -32.2500  11.0000  17.5000 Du        
   1248 ****       -32.2500  11.2500  17.0000 Du        
   1249 ****       -32.2500  11.2500  17.2500 Du        
   1250 ****       -32.2500  11.2500  17.5000 Du        
   1251 ****       -32.2500  11.5000  17.5000 Du        
   1252 ****       -32.2500  11.7500  17.5000 Du        
   1253 ****       -32.2500  12.0000  17.2500 Du        
   1254 ****       -32.2500  12.0000  17.5000 Du        
   1255 ****       -32.2500  12.2500  17.2500 Du        
   1256 ****       -32.2500  12.2500  17.5000 Du        
   1257 ****       -32.2500  12.2500  17.7500 Du        
   1258 ****       -32.2500  12.5000  17.5000 Du        
   1259 ****       -32.2500  12.5000  17.7500 Du        
   1260 ****       -32.2500  12.7500  17.5000 Du        
   1261 ****       -32.2500  12.7500  17.7500 Du        
   1262 ****       -32.2500  13.0000  17.5000 Du        
   1263 ****       -32.2500  13.0000  17.7500 Du        
   1264 ****       -32.2500  13.0000  18.0000 Du        
   1265 ****       -32.2500  13.2500  17.5000 Du        
   1266 ****       -32.2500  13.2500  17.7500 Du        
   1267 ****       -32.2500  13.2500  18.0000 Du        
   1268 ****       -32.0000  -1.5000   4.0000 Du        
   1269 ****       -32.0000  -1.5000   4.5000 Du        
   1270 ****       -32.0000  -1.2500   3.5000 Du        
   1271 ****       -32.0000  -1.2500   3.7500 Du        
   1272 ****       -32.0000  -1.2500   4.0000 Du        
   1273 ****       -32.0000  -1.2500   4.2500 Du        
   1274 ****       -32.0000  -1.2500   4.5000 Du        
   1275 ****       -32.0000  -1.2500   4.7500 Du        
   1276 ****       -32.0000  -1.2500   5.0000 Du        
   1277 ****       -32.0000  -1.2500   5.2500 Du        
   1278 ****       -32.0000  -1.0000   3.5000 Du        
   1279 ****       -32.0000  -1.0000   3.7500 Du        
   1280 ****       -32.0000  -1.0000   4.0000 Du        
   1281 ****       -32.0000  -1.0000   4.2500 Du        
   1282 ****       -32.0000  -1.0000   4.5000 Du        
   1283 ****       -32.0000  -1.0000   4.7500 Du        
   1284 ****       -32.0000  -1.0000   5.0000 Du        
   1285 ****       -32.0000  -1.0000   5.2500 Du        
   1286 ****       -32.0000  -1.0000   5.5000 Du        
   1287 ****       -32.0000  -0.7500   3.7500 Du        
   1288 ****       -32.0000  -0.7500   4.0000 Du        
   1289 ****       -32.0000  -0.7500   4.2500 Du        
   1290 ****       -32.0000  -0.7500   4.5000 Du        
   1291 ****       -32.0000  -0.7500   4.7500 Du        
   1292 ****       -32.0000  -0.7500   5.0000 Du        
   1293 ****       -32.0000  -0.7500   5.2500 Du        
   1294 ****       -32.0000  -0.5000   4.2500 Du        
   1295 ****       -32.0000  -0.5000   4.5000 Du        
   1296 ****       -32.0000  -0.5000   4.7500 Du        
   1297 ****       -32.0000   4.7500  12.5000 Du        
   1298 ****       -32.0000   4.7500  12.7500 Du        
   1299 ****       -32.0000   5.0000  11.7500 Du        
   1300 ****       -32.0000   5.0000  12.0000 Du        
   1301 ****       -32.0000   5.0000  12.2500 Du        
   1302 ****       -32.0000   5.0000  12.5000 Du        
   1303 ****       -32.0000   5.0000  12.7500 Du        
   1304 ****       -32.0000   5.0000  13.0000 Du        
   1305 ****       -32.0000   5.2500  11.2500 Du        
   1306 ****       -32.0000   5.2500  11.5000 Du        
   1307 ****       -32.0000   5.2500  11.7500 Du        
   1308 ****       -32.0000   5.2500  12.0000 Du        
   1309 ****       -32.0000   5.2500  12.2500 Du        
   1310 ****       -32.0000   5.2500  12.5000 Du        
   1311 ****       -32.0000   5.2500  12.7500 Du        
   1312 ****       -32.0000   5.2500  13.0000 Du        
   1313 ****       -32.0000   5.5000  11.0000 Du        
   1314 ****       -32.0000   5.5000  11.2500 Du        
   1315 ****       -32.0000   5.5000  11.5000 Du        
   1316 ****       -32.0000   5.5000  11.7500 Du        
   1317 ****       -32.0000   5.5000  12.0000 Du        
   1318 ****       -32.0000   5.5000  12.2500 Du        
   1319 ****       -32.0000   5.5000  12.5000 Du        
   1320 ****       -32.0000   5.5000  12.7500 Du        
   1321 ****       -32.0000   5.5000  13.0000 Du        
   1322 ****       -32.0000   5.7500  10.7500 Du        
   1323 ****       -32.0000   5.7500  11.0000 Du        
   1324 ****       -32.0000   5.7500  11.2500 Du        
   1325 ****       -32.0000   5.7500  11.5000 Du        
   1326 ****       -32.0000   5.7500  11.7500 Du        
   1327 ****       -32.0000   5.7500  12.0000 Du        
   1328 ****       -32.0000   5.7500  12.2500 Du        
   1329 ****       -32.0000   5.7500  12.5000 Du        
   1330 ****       -32.0000   5.7500  12.7500 Du        
   1331 ****       -32.0000   5.7500  13.0000 Du        
   1332 ****       -32.0000   6.0000  10.5000 Du        
   1333 ****       -32.0000   6.0000  10.7500 Du        
   1334 ****       -32.0000   6.0000  11.0000 Du        
   1335 ****       -32.0000   6.0000  11.2500 Du        
   1336 ****       -32.0000   6.0000  11.5000 Du        
   1337 ****       -32.0000   6.0000  11.7500 Du        
   1338 ****       -32.0000   6.0000  12.0000 Du        
   1339 ****       -32.0000   6.0000  12.2500 Du        
   1340 ****       -32.0000   6.0000  12.5000 Du        
   1341 ****       -32.0000   6.0000  12.7500 Du        
   1342 ****       -32.0000   6.0000  13.0000 Du        
   1343 ****       -32.0000   6.2500  10.5000 Du        
   1344 ****       -32.0000   6.2500  10.7500 Du        
   1345 ****       -32.0000   6.2500  11.0000 Du        
   1346 ****       -32.0000   6.2500  11.2500 Du        
   1347 ****       -32.0000   6.2500  11.5000 Du        
   1348 ****       -32.0000   6.2500  11.7500 Du        
   1349 ****       -32.0000   6.2500  12.0000 Du        
   1350 ****       -32.0000   6.2500  12.2500 Du        
   1351 ****       -32.0000   6.2500  12.5000 Du        
   1352 ****       -32.0000   6.2500  12.7500 Du        
   1353 ****       -32.0000   6.2500  13.0000 Du        
   1354 ****       -32.0000   6.2500  13.2500 Du        
   1355 ****       -32.0000   6.5000  11.7500 Du        
   1356 ****       -32.0000   6.5000  12.0000 Du        
   1357 ****       -32.0000   6.5000  12.2500 Du        
   1358 ****       -32.0000   6.5000  12.5000 Du        
   1359 ****       -32.0000   6.5000  12.7500 Du        
   1360 ****       -32.0000   6.5000  13.0000 Du        
   1361 ****       -32.0000   6.5000  13.2500 Du        
   1362 ****       -32.0000   6.7500  12.0000 Du        
   1363 ****       -32.0000   6.7500  12.2500 Du        
   1364 ****       -32.0000   6.7500  12.5000 Du        
   1365 ****       -32.0000   6.7500  12.7500 Du        
   1366 ****       -32.0000   6.7500  13.0000 Du        
   1367 ****       -32.0000   6.7500  13.2500 Du        
   1368 ****       -32.0000   6.7500  13.5000 Du        
   1369 ****       -32.0000   7.0000  12.5000 Du        
   1370 ****       -32.0000   7.0000  12.7500 Du        
   1371 ****       -32.0000   7.0000  13.0000 Du        
   1372 ****       -32.0000   7.0000  13.2500 Du        
   1373 ****       -32.0000   7.0000  13.5000 Du        
   1374 ****       -32.0000   7.0000  13.7500 Du        
   1375 ****       -32.0000   7.0000  14.0000 Du        
   1376 ****       -32.0000   7.2500  12.5000 Du        
   1377 ****       -32.0000   7.2500  12.7500 Du        
   1378 ****       -32.0000   7.2500  13.0000 Du        
   1379 ****       -32.0000   7.2500  13.2500 Du        
   1380 ****       -32.0000   7.2500  13.5000 Du        
   1381 ****       -32.0000   7.2500  13.7500 Du        
   1382 ****       -32.0000   7.2500  14.0000 Du        
   1383 ****       -32.0000   7.2500  14.2500 Du        
   1384 ****       -32.0000   7.2500  14.5000 Du        
   1385 ****       -32.0000   7.5000  13.2500 Du        
   1386 ****       -32.0000   7.5000  13.5000 Du        
   1387 ****       -32.0000   7.5000  13.7500 Du        
   1388 ****       -32.0000   7.5000  14.0000 Du        
   1389 ****       -32.0000   7.5000  14.2500 Du        
   1390 ****       -32.0000   7.5000  14.5000 Du        
   1391 ****       -32.0000   7.5000  14.7500 Du        
   1392 ****       -32.0000   7.5000  15.0000 Du        
   1393 ****       -32.0000   7.5000  15.2500 Du        
   1394 ****       -32.0000   7.5000  15.5000 Du        
   1395 ****       -32.0000   7.5000  15.7500 Du        
   1396 ****       -32.0000   7.7500  13.5000 Du        
   1397 ****       -32.0000   7.7500  13.7500 Du        
   1398 ****       -32.0000   7.7500  14.0000 Du        
   1399 ****       -32.0000   7.7500  14.2500 Du        
   1400 ****       -32.0000   7.7500  14.5000 Du        
   1401 ****       -32.0000   7.7500  14.7500 Du        
   1402 ****       -32.0000   7.7500  15.0000 Du        
   1403 ****       -32.0000   7.7500  15.2500 Du        
   1404 ****       -32.0000   7.7500  15.5000 Du        
   1405 ****       -32.0000   7.7500  15.7500 Du        
   1406 ****       -32.0000   8.0000  13.5000 Du        
   1407 ****       -32.0000   8.0000  13.7500 Du        
   1408 ****       -32.0000   8.0000  14.0000 Du        
   1409 ****       -32.0000   8.0000  14.2500 Du        
   1410 ****       -32.0000   8.0000  14.5000 Du        
   1411 ****       -32.0000   8.0000  14.7500 Du        
   1412 ****       -32.0000   8.0000  15.0000 Du        
   1413 ****       -32.0000   8.0000  15.2500 Du        
   1414 ****       -32.0000   8.0000  15.5000 Du        
   1415 ****       -32.0000   8.0000  15.7500 Du        
   1416 ****       -32.0000   8.0000  16.0000 Du        
   1417 ****       -32.0000   8.2500  13.7500 Du        
   1418 ****       -32.0000   8.2500  14.0000 Du        
   1419 ****       -32.0000   8.2500  14.2500 Du        
   1420 ****       -32.0000   8.2500  14.5000 Du        
   1421 ****       -32.0000   8.2500  14.7500 Du        
   1422 ****       -32.0000   8.2500  15.0000 Du        
   1423 ****       -32.0000   8.2500  15.2500 Du        
   1424 ****       -32.0000   8.2500  15.5000 Du        
   1425 ****       -32.0000   8.2500  15.7500 Du        
   1426 ****       -32.0000   8.2500  16.0000 Du        
   1427 ****       -32.0000   8.5000  14.0000 Du        
   1428 ****       -32.0000   8.5000  14.2500 Du        
   1429 ****       -32.0000   8.5000  14.5000 Du        
   1430 ****       -32.0000   8.5000  14.7500 Du        
   1431 ****       -32.0000   8.5000  15.0000 Du        
   1432 ****       -32.0000   8.5000  15.2500 Du        
   1433 ****       -32.0000   8.5000  15.5000 Du        
   1434 ****       -32.0000   8.5000  15.7500 Du        
   1435 ****       -32.0000   8.5000  16.0000 Du        
   1436 ****       -32.0000   8.7500  14.2500 Du        
   1437 ****       -32.0000   8.7500  14.5000 Du        
   1438 ****       -32.0000   8.7500  14.7500 Du        
   1439 ****       -32.0000   8.7500  15.0000 Du        
   1440 ****       -32.0000   8.7500  15.2500 Du        
   1441 ****       -32.0000   8.7500  15.5000 Du        
   1442 ****       -32.0000   8.7500  15.7500 Du        
   1443 ****       -32.0000   8.7500  16.0000 Du        
   1444 ****       -32.0000   8.7500  16.2500 Du        
   1445 ****       -32.0000   8.7500  16.5000 Du        
   1446 ****       -32.0000   9.0000  14.2500 Du        
   1447 ****       -32.0000   9.0000  14.5000 Du        
   1448 ****       -32.0000   9.0000  14.7500 Du        
   1449 ****       -32.0000   9.0000  15.0000 Du        
   1450 ****       -32.0000   9.0000  15.2500 Du        
   1451 ****       -32.0000   9.0000  15.5000 Du        
   1452 ****       -32.0000   9.0000  15.7500 Du        
   1453 ****       -32.0000   9.0000  16.0000 Du        
   1454 ****       -32.0000   9.0000  16.2500 Du        
   1455 ****       -32.0000   9.0000  16.5000 Du        
   1456 ****       -32.0000   9.0000  16.7500 Du        
   1457 ****       -32.0000   9.2500  14.5000 Du        
   1458 ****       -32.0000   9.2500  14.7500 Du        
   1459 ****       -32.0000   9.2500  15.0000 Du        
   1460 ****       -32.0000   9.2500  15.2500 Du        
   1461 ****       -32.0000   9.2500  15.5000 Du        
   1462 ****       -32.0000   9.2500  15.7500 Du        
   1463 ****       -32.0000   9.2500  16.0000 Du        
   1464 ****       -32.0000   9.2500  16.2500 Du        
   1465 ****       -32.0000   9.2500  16.5000 Du        
   1466 ****       -32.0000   9.2500  16.7500 Du        
   1467 ****       -32.0000   9.2500  17.0000 Du        
   1468 ****       -32.0000   9.2500  17.2500 Du        
   1469 ****       -32.0000   9.5000  15.0000 Du        
   1470 ****       -32.0000   9.5000  15.2500 Du        
   1471 ****       -32.0000   9.5000  15.5000 Du        
   1472 ****       -32.0000   9.5000  15.7500 Du        
   1473 ****       -32.0000   9.5000  16.0000 Du        
   1474 ****       -32.0000   9.5000  16.2500 Du        
   1475 ****       -32.0000   9.5000  16.5000 Du        
   1476 ****       -32.0000   9.5000  16.7500 Du        
   1477 ****       -32.0000   9.5000  17.0000 Du        
   1478 ****       -32.0000   9.5000  17.2500 Du        
   1479 ****       -32.0000   9.5000  17.5000 Du        
   1480 ****       -32.0000   9.7500  15.2500 Du        
   1481 ****       -32.0000   9.7500  15.5000 Du        
   1482 ****       -32.0000   9.7500  15.7500 Du        
   1483 ****       -32.0000   9.7500  16.0000 Du        
   1484 ****       -32.0000   9.7500  16.2500 Du        
   1485 ****       -32.0000   9.7500  16.5000 Du        
   1486 ****       -32.0000   9.7500  16.7500 Du        
   1487 ****       -32.0000   9.7500  17.0000 Du        
   1488 ****       -32.0000   9.7500  17.2500 Du        
   1489 ****       -32.0000   9.7500  17.5000 Du        
   1490 ****       -32.0000  10.0000  15.5000 Du        
   1491 ****       -32.0000  10.0000  15.7500 Du        
   1492 ****       -32.0000  10.0000  16.0000 Du        
   1493 ****       -32.0000  10.0000  16.2500 Du        
   1494 ****       -32.0000  10.0000  16.5000 Du        
   1495 ****       -32.0000  10.0000  16.7500 Du        
   1496 ****       -32.0000  10.0000  17.0000 Du        
   1497 ****       -32.0000  10.0000  17.2500 Du        
   1498 ****       -32.0000  10.0000  17.5000 Du        
   1499 ****       -32.0000  10.0000  17.7500 Du        
   1500 ****       -32.0000  10.2500  15.7500 Du        
   1501 ****       -32.0000  10.2500  16.0000 Du        
   1502 ****       -32.0000  10.2500  16.2500 Du        
   1503 ****       -32.0000  10.2500  16.5000 Du        
   1504 ****       -32.0000  10.2500  16.7500 Du        
   1505 ****       -32.0000  10.2500  17.0000 Du        
   1506 ****       -32.0000  10.2500  17.2500 Du        
   1507 ****       -32.0000  10.2500  17.5000 Du        
   1508 ****       -32.0000  13.0000  17.7500 Du        
   1509 ****       -32.0000  13.2500  17.7500 Du        
   1510 ****       -32.0000  13.5000  17.7500 Du        
   1511 ****       -32.0000  13.7500  17.7500 Du        
   1512 ****       -32.0000  13.7500  18.0000 Du        
   1513 ****       -31.7500  -1.5000   3.7500 Du        
   1514 ****       -31.7500  -1.5000   4.0000 Du        
   1515 ****       -31.7500  -1.5000   4.5000 Du        
   1516 ****       -31.7500  -1.2500   3.5000 Du        
   1517 ****       -31.7500  -1.2500   3.7500 Du        
   1518 ****       -31.7500  -1.2500   4.0000 Du        
   1519 ****       -31.7500  -1.2500   4.2500 Du        
   1520 ****       -31.7500  -1.2500   4.5000 Du        
   1521 ****       -31.7500  -1.2500   4.7500 Du        
   1522 ****       -31.7500  -1.2500   5.0000 Du        
   1523 ****       -31.7500  -1.0000   3.5000 Du        
   1524 ****       -31.7500  -1.0000   3.7500 Du        
   1525 ****       -31.7500  -1.0000   4.0000 Du        
   1526 ****       -31.7500  -1.0000   4.2500 Du        
   1527 ****       -31.7500  -1.0000   4.5000 Du        
   1528 ****       -31.7500  -1.0000   4.7500 Du        
   1529 ****       -31.7500  -1.0000   5.0000 Du        
   1530 ****       -31.7500  -1.0000   5.2500 Du        
   1531 ****       -31.7500  -0.7500   3.7500 Du        
   1532 ****       -31.7500  -0.7500   4.0000 Du        
   1533 ****       -31.7500  -0.7500   4.2500 Du        
   1534 ****       -31.7500  -0.7500   4.5000 Du        
   1535 ****       -31.7500  -0.7500   4.7500 Du        
   1536 ****       -31.7500  -0.7500   5.0000 Du        
   1537 ****       -31.7500   4.7500  12.2500 Du        
   1538 ****       -31.7500   4.7500  12.5000 Du        
   1539 ****       -31.7500   5.0000  11.7500 Du        
   1540 ****       -31.7500   5.0000  12.0000 Du        
   1541 ****       -31.7500   5.0000  12.2500 Du        
   1542 ****       -31.7500   5.0000  12.5000 Du        
   1543 ****       -31.7500   5.0000  12.7500 Du        
   1544 ****       -31.7500   5.2500  11.5000 Du        
   1545 ****       -31.7500   5.2500  11.7500 Du        
   1546 ****       -31.7500   5.2500  12.0000 Du        
   1547 ****       -31.7500   5.2500  12.2500 Du        
   1548 ****       -31.7500   5.2500  12.5000 Du        
   1549 ****       -31.7500   5.2500  12.7500 Du        
   1550 ****       -31.7500   5.5000  11.0000 Du        
   1551 ****       -31.7500   5.5000  11.2500 Du        
   1552 ****       -31.7500   5.5000  11.5000 Du        
   1553 ****       -31.7500   5.5000  11.7500 Du        
   1554 ****       -31.7500   5.5000  12.0000 Du        
   1555 ****       -31.7500   5.5000  12.2500 Du        
   1556 ****       -31.7500   5.5000  12.5000 Du        
   1557 ****       -31.7500   5.5000  12.7500 Du        
   1558 ****       -31.7500   5.7500  10.7500 Du        
   1559 ****       -31.7500   5.7500  11.0000 Du        
   1560 ****       -31.7500   5.7500  11.2500 Du        
   1561 ****       -31.7500   5.7500  11.5000 Du        
   1562 ****       -31.7500   5.7500  11.7500 Du        
   1563 ****       -31.7500   5.7500  12.0000 Du        
   1564 ****       -31.7500   5.7500  12.2500 Du        
   1565 ****       -31.7500   5.7500  12.5000 Du        
   1566 ****       -31.7500   5.7500  12.7500 Du        
   1567 ****       -31.7500   6.0000  10.5000 Du        
   1568 ****       -31.7500   6.0000  10.7500 Du        
   1569 ****       -31.7500   6.0000  11.0000 Du        
   1570 ****       -31.7500   6.0000  11.2500 Du        
   1571 ****       -31.7500   6.0000  11.5000 Du        
   1572 ****       -31.7500   6.0000  11.7500 Du        
   1573 ****       -31.7500   6.0000  12.0000 Du        
   1574 ****       -31.7500   6.0000  12.2500 Du        
   1575 ****       -31.7500   6.0000  12.5000 Du        
   1576 ****       -31.7500   6.0000  12.7500 Du        
   1577 ****       -31.7500   6.0000  13.0000 Du        
   1578 ****       -31.7500   6.2500  10.5000 Du        
   1579 ****       -31.7500   6.2500  10.7500 Du        
   1580 ****       -31.7500   6.2500  11.0000 Du        
   1581 ****       -31.7500   6.2500  11.2500 Du        
   1582 ****       -31.7500   6.2500  11.5000 Du        
   1583 ****       -31.7500   6.2500  11.7500 Du        
   1584 ****       -31.7500   6.2500  12.0000 Du        
   1585 ****       -31.7500   6.2500  12.2500 Du        
   1586 ****       -31.7500   6.2500  12.5000 Du        
   1587 ****       -31.7500   6.2500  12.7500 Du        
   1588 ****       -31.7500   6.2500  13.0000 Du        
   1589 ****       -31.7500   6.5000  11.5000 Du        
   1590 ****       -31.7500   6.5000  11.7500 Du        
   1591 ****       -31.7500   6.5000  12.0000 Du        
   1592 ****       -31.7500   6.5000  12.2500 Du        
   1593 ****       -31.7500   6.5000  12.5000 Du        
   1594 ****       -31.7500   6.5000  12.7500 Du        
   1595 ****       -31.7500   6.5000  13.0000 Du        
   1596 ****       -31.7500   6.7500  11.7500 Du        
   1597 ****       -31.7500   6.7500  12.0000 Du        
   1598 ****       -31.7500   6.7500  12.2500 Du        
   1599 ****       -31.7500   6.7500  12.5000 Du        
   1600 ****       -31.7500   6.7500  12.7500 Du        
   1601 ****       -31.7500   6.7500  13.0000 Du        
   1602 ****       -31.7500   6.7500  13.2500 Du        
   1603 ****       -31.7500   7.0000  11.7500 Du        
   1604 ****       -31.7500   7.0000  12.0000 Du        
   1605 ****       -31.7500   7.0000  12.2500 Du        
   1606 ****       -31.7500   7.0000  12.5000 Du        
   1607 ****       -31.7500   7.0000  12.7500 Du        
   1608 ****       -31.7500   7.0000  13.0000 Du        
   1609 ****       -31.7500   7.0000  13.2500 Du        
   1610 ****       -31.7500   7.0000  13.5000 Du        
   1611 ****       -31.7500   7.2500  12.5000 Du        
   1612 ****       -31.7500   7.2500  12.7500 Du        
   1613 ****       -31.7500   7.2500  13.0000 Du        
   1614 ****       -31.7500   7.2500  13.2500 Du        
   1615 ****       -31.7500   7.2500  13.5000 Du        
   1616 ****       -31.7500   7.2500  13.7500 Du        
   1617 ****       -31.7500   7.2500  14.0000 Du        
   1618 ****       -31.7500   7.5000  13.0000 Du        
   1619 ****       -31.7500   7.5000  13.2500 Du        
   1620 ****       -31.7500   7.5000  13.5000 Du        
   1621 ****       -31.7500   7.5000  13.7500 Du        
   1622 ****       -31.7500   7.5000  14.0000 Du        
   1623 ****       -31.7500   7.5000  14.2500 Du        
   1624 ****       -31.7500   7.5000  14.5000 Du        
   1625 ****       -31.7500   7.5000  14.7500 Du        
   1626 ****       -31.7500   7.5000  15.0000 Du        
   1627 ****       -31.7500   7.5000  15.2500 Du        
   1628 ****       -31.7500   7.5000  15.5000 Du        
   1629 ****       -31.7500   7.7500  13.2500 Du        
   1630 ****       -31.7500   7.7500  13.5000 Du        
   1631 ****       -31.7500   7.7500  13.7500 Du        
   1632 ****       -31.7500   7.7500  14.0000 Du        
   1633 ****       -31.7500   7.7500  14.2500 Du        
   1634 ****       -31.7500   7.7500  14.5000 Du        
   1635 ****       -31.7500   7.7500  14.7500 Du        
   1636 ****       -31.7500   7.7500  15.0000 Du        
   1637 ****       -31.7500   7.7500  15.2500 Du        
   1638 ****       -31.7500   7.7500  15.5000 Du        
   1639 ****       -31.7500   7.7500  15.7500 Du        
   1640 ****       -31.7500   8.0000  13.5000 Du        
   1641 ****       -31.7500   8.0000  13.7500 Du        
   1642 ****       -31.7500   8.0000  14.0000 Du        
   1643 ****       -31.7500   8.0000  14.2500 Du        
   1644 ****       -31.7500   8.0000  14.5000 Du        
   1645 ****       -31.7500   8.0000  14.7500 Du        
   1646 ****       -31.7500   8.0000  15.0000 Du        
   1647 ****       -31.7500   8.0000  15.2500 Du        
   1648 ****       -31.7500   8.0000  15.5000 Du        
   1649 ****       -31.7500   8.0000  15.7500 Du        
   1650 ****       -31.7500   8.0000  16.0000 Du        
   1651 ****       -31.7500   8.2500  13.5000 Du        
   1652 ****       -31.7500   8.2500  13.7500 Du        
   1653 ****       -31.7500   8.2500  14.0000 Du        
   1654 ****       -31.7500   8.2500  14.2500 Du        
   1655 ****       -31.7500   8.2500  14.5000 Du        
   1656 ****       -31.7500   8.2500  14.7500 Du        
   1657 ****       -31.7500   8.2500  15.0000 Du        
   1658 ****       -31.7500   8.2500  15.2500 Du        
   1659 ****       -31.7500   8.2500  15.5000 Du        
   1660 ****       -31.7500   8.2500  15.7500 Du        
   1661 ****       -31.7500   8.2500  16.0000 Du        
   1662 ****       -31.7500   8.5000  14.0000 Du        
   1663 ****       -31.7500   8.5000  14.2500 Du        
   1664 ****       -31.7500   8.5000  14.5000 Du        
   1665 ****       -31.7500   8.5000  14.7500 Du        
   1666 ****       -31.7500   8.5000  15.0000 Du        
   1667 ****       -31.7500   8.5000  15.2500 Du        
   1668 ****       -31.7500   8.5000  15.5000 Du        
   1669 ****       -31.7500   8.5000  15.7500 Du        
   1670 ****       -31.7500   8.5000  16.0000 Du        
   1671 ****       -31.7500   8.7500  14.2500 Du        
   1672 ****       -31.7500   8.7500  14.5000 Du        
   1673 ****       -31.7500   8.7500  14.7500 Du        
   1674 ****       -31.7500   8.7500  15.0000 Du        
   1675 ****       -31.7500   8.7500  15.2500 Du        
   1676 ****       -31.7500   8.7500  15.5000 Du        
   1677 ****       -31.7500   8.7500  15.7500 Du        
   1678 ****       -31.7500   8.7500  16.0000 Du        
   1679 ****       -31.7500   8.7500  16.2500 Du        
   1680 ****       -31.7500   9.0000  14.2500 Du        
   1681 ****       -31.7500   9.0000  14.5000 Du        
   1682 ****       -31.7500   9.0000  14.7500 Du        
   1683 ****       -31.7500   9.0000  15.0000 Du        
   1684 ****       -31.7500   9.0000  15.2500 Du        
   1685 ****       -31.7500   9.0000  15.5000 Du        
   1686 ****       -31.7500   9.0000  15.7500 Du        
   1687 ****       -31.7500   9.0000  16.0000 Du        
   1688 ****       -31.7500   9.0000  16.2500 Du        
   1689 ****       -31.7500   9.0000  16.5000 Du        
   1690 ****       -31.7500   9.2500  14.5000 Du        
   1691 ****       -31.7500   9.2500  14.7500 Du        
   1692 ****       -31.7500   9.2500  15.0000 Du        
   1693 ****       -31.7500   9.2500  15.2500 Du        
   1694 ****       -31.7500   9.2500  15.5000 Du        
   1695 ****       -31.7500   9.2500  15.7500 Du        
   1696 ****       -31.7500   9.2500  16.0000 Du        
   1697 ****       -31.7500   9.2500  16.2500 Du        
   1698 ****       -31.7500   9.2500  16.5000 Du        
   1699 ****       -31.7500   9.5000  15.2500 Du        
   1700 ****       -31.7500   9.5000  15.5000 Du        
   1701 ****       -31.7500   9.5000  15.7500 Du        
   1702 ****       -31.7500   9.5000  16.0000 Du        
   1703 ****       -31.7500   9.5000  16.2500 Du        
   1704 ****       -31.7500   9.5000  16.5000 Du        
   1705 ****       -31.7500   9.7500  15.5000 Du        
   1706 ****       -31.7500   9.7500  15.7500 Du        
   1707 ****       -31.7500   9.7500  16.0000 Du        
   1708 ****       -31.7500   9.7500  16.2500 Du        
   1709 ****       -31.7500  13.7500  18.0000 Du        
   1710 ****       -31.7500  14.0000  18.0000 Du        
   1711 ****       -31.7500  14.0000  18.2500 Du        
   1712 ****       -31.5000  -1.2500   3.5000 Du        
   1713 ****       -31.5000  -1.2500   3.7500 Du        
   1714 ****       -31.5000  -1.2500   4.0000 Du        
   1715 ****       -31.5000  -1.2500   4.2500 Du        
   1716 ****       -31.5000  -1.2500   4.5000 Du        
   1717 ****       -31.5000  -1.2500   4.7500 Du        
   1718 ****       -31.5000  -1.0000   3.7500 Du        
   1719 ****       -31.5000  -1.0000   4.0000 Du        
   1720 ****       -31.5000  -1.0000   4.2500 Du        
   1721 ****       -31.5000  -1.0000   4.5000 Du        
   1722 ****       -31.5000  -1.0000   4.7500 Du        
   1723 ****       -31.5000  -0.7500   3.7500 Du        
   1724 ****       -31.5000  -0.7500   4.0000 Du        
   1725 ****       -31.5000  -0.7500   4.2500 Du        
   1726 ****       -31.5000  -0.7500   4.5000 Du        
   1727 ****       -31.5000   4.7500  12.2500 Du        
   1728 ****       -31.5000   4.7500  12.5000 Du        
   1729 ****       -31.5000   5.0000  11.7500 Du        
   1730 ****       -31.5000   5.0000  12.0000 Du        
   1731 ****       -31.5000   5.0000  12.2500 Du        
   1732 ****       -31.5000   5.0000  12.5000 Du        
   1733 ****       -31.5000   5.2500  11.5000 Du        
   1734 ****       -31.5000   5.2500  11.7500 Du        
   1735 ****       -31.5000   5.2500  12.0000 Du        
   1736 ****       -31.5000   5.2500  12.2500 Du        
   1737 ****       -31.5000   5.2500  12.5000 Du        
   1738 ****       -31.5000   5.2500  12.7500 Du        
   1739 ****       -31.5000   5.5000  11.2500 Du        
   1740 ****       -31.5000   5.5000  11.5000 Du        
   1741 ****       -31.5000   5.5000  11.7500 Du        
   1742 ****       -31.5000   5.5000  12.0000 Du        
   1743 ****       -31.5000   5.5000  12.2500 Du        
   1744 ****       -31.5000   5.5000  12.5000 Du        
   1745 ****       -31.5000   5.5000  12.7500 Du        
   1746 ****       -31.5000   5.7500  11.0000 Du        
   1747 ****       -31.5000   5.7500  11.2500 Du        
   1748 ****       -31.5000   5.7500  11.5000 Du        
   1749 ****       -31.5000   5.7500  11.7500 Du        
   1750 ****       -31.5000   5.7500  12.0000 Du        
   1751 ****       -31.5000   5.7500  12.2500 Du        
   1752 ****       -31.5000   5.7500  12.5000 Du        
   1753 ****       -31.5000   5.7500  12.7500 Du        
   1754 ****       -31.5000   6.0000  10.5000 Du        
   1755 ****       -31.5000   6.0000  10.7500 Du        
   1756 ****       -31.5000   6.0000  11.0000 Du        
   1757 ****       -31.5000   6.0000  11.2500 Du        
   1758 ****       -31.5000   6.0000  11.5000 Du        
   1759 ****       -31.5000   6.0000  11.7500 Du        
   1760 ****       -31.5000   6.0000  12.0000 Du        
   1761 ****       -31.5000   6.0000  12.2500 Du        
   1762 ****       -31.5000   6.0000  12.5000 Du        
   1763 ****       -31.5000   6.0000  12.7500 Du        
   1764 ****       -31.5000   6.2500  10.5000 Du        
   1765 ****       -31.5000   6.2500  10.7500 Du        
   1766 ****       -31.5000   6.2500  11.0000 Du        
   1767 ****       -31.5000   6.2500  11.2500 Du        
   1768 ****       -31.5000   6.2500  11.5000 Du        
   1769 ****       -31.5000   6.2500  11.7500 Du        
   1770 ****       -31.5000   6.2500  12.0000 Du        
   1771 ****       -31.5000   6.2500  12.2500 Du        
   1772 ****       -31.5000   6.2500  12.5000 Du        
   1773 ****       -31.5000   6.2500  12.7500 Du        
   1774 ****       -31.5000   6.2500  13.0000 Du        
   1775 ****       -31.5000   6.5000  11.2500 Du        
   1776 ****       -31.5000   6.5000  11.5000 Du        
   1777 ****       -31.5000   6.5000  11.7500 Du        
   1778 ****       -31.5000   6.5000  12.0000 Du        
   1779 ****       -31.5000   6.5000  12.2500 Du        
   1780 ****       -31.5000   6.5000  12.5000 Du        
   1781 ****       -31.5000   6.5000  12.7500 Du        
   1782 ****       -31.5000   6.5000  13.0000 Du        
   1783 ****       -31.5000   6.7500  11.2500 Du        
   1784 ****       -31.5000   6.7500  11.5000 Du        
   1785 ****       -31.5000   6.7500  11.7500 Du        
   1786 ****       -31.5000   6.7500  12.0000 Du        
   1787 ****       -31.5000   6.7500  12.2500 Du        
   1788 ****       -31.5000   6.7500  12.5000 Du        
   1789 ****       -31.5000   6.7500  12.7500 Du        
   1790 ****       -31.5000   6.7500  13.0000 Du        
   1791 ****       -31.5000   7.0000  11.5000 Du        
   1792 ****       -31.5000   7.0000  11.7500 Du        
   1793 ****       -31.5000   7.0000  12.0000 Du        
   1794 ****       -31.5000   7.0000  12.2500 Du        
   1795 ****       -31.5000   7.0000  12.5000 Du        
   1796 ****       -31.5000   7.0000  12.7500 Du        
   1797 ****       -31.5000   7.0000  13.0000 Du        
   1798 ****       -31.5000   7.0000  13.2500 Du        
   1799 ****       -31.5000   7.2500  12.0000 Du        
   1800 ****       -31.5000   7.2500  12.2500 Du        
   1801 ****       -31.5000   7.2500  12.5000 Du        
   1802 ****       -31.5000   7.2500  12.7500 Du        
   1803 ****       -31.5000   7.2500  13.0000 Du        
   1804 ****       -31.5000   7.2500  13.2500 Du        
   1805 ****       -31.5000   7.2500  13.5000 Du        
   1806 ****       -31.5000   7.2500  13.7500 Du        
   1807 ****       -31.5000   7.5000  13.2500 Du        
   1808 ****       -31.5000   7.5000  13.5000 Du        
   1809 ****       -31.5000   7.5000  13.7500 Du        
   1810 ****       -31.5000   7.7500  13.2500 Du        
   1811 ****       -31.5000   7.7500  13.5000 Du        
   1812 ****       -31.5000   7.7500  13.7500 Du        
   1813 ****       -31.5000   7.7500  14.0000 Du        
   1814 ****       -31.5000   7.7500  14.2500 Du        
   1815 ****       -31.5000   7.7500  14.5000 Du        
   1816 ****       -31.5000   7.7500  14.7500 Du        
   1817 ****       -31.5000   7.7500  15.0000 Du        
   1818 ****       -31.5000   7.7500  15.2500 Du        
   1819 ****       -31.5000   7.7500  15.5000 Du        
   1820 ****       -31.5000   8.0000  13.2500 Du        
   1821 ****       -31.5000   8.0000  13.5000 Du        
   1822 ****       -31.5000   8.0000  13.7500 Du        
   1823 ****       -31.5000   8.0000  14.0000 Du        
   1824 ****       -31.5000   8.0000  14.2500 Du        
   1825 ****       -31.5000   8.0000  14.5000 Du        
   1826 ****       -31.5000   8.0000  14.7500 Du        
   1827 ****       -31.5000   8.0000  15.0000 Du        
   1828 ****       -31.5000   8.0000  15.2500 Du        
   1829 ****       -31.5000   8.0000  15.5000 Du        
   1830 ****       -31.5000   8.0000  15.7500 Du        
   1831 ****       -31.5000   8.2500  13.5000 Du        
   1832 ****       -31.5000   8.2500  13.7500 Du        
   1833 ****       -31.5000   8.2500  14.0000 Du        
   1834 ****       -31.5000   8.2500  14.2500 Du        
   1835 ****       -31.5000   8.2500  14.5000 Du        
   1836 ****       -31.5000   8.2500  14.7500 Du        
   1837 ****       -31.5000   8.2500  15.0000 Du        
   1838 ****       -31.5000   8.2500  15.2500 Du        
   1839 ****       -31.5000   8.2500  15.5000 Du        
   1840 ****       -31.5000   8.2500  15.7500 Du        
   1841 ****       -31.5000   8.5000  13.7500 Du        
   1842 ****       -31.5000   8.5000  14.0000 Du        
   1843 ****       -31.5000   8.5000  14.2500 Du        
   1844 ****       -31.5000   8.5000  14.5000 Du        
   1845 ****       -31.5000   8.5000  14.7500 Du        
   1846 ****       -31.5000   8.5000  15.0000 Du        
   1847 ****       -31.5000   8.5000  15.2500 Du        
   1848 ****       -31.5000   8.5000  15.5000 Du        
   1849 ****       -31.5000   8.5000  15.7500 Du        
   1850 ****       -31.5000   8.7500  14.0000 Du        
   1851 ****       -31.5000   8.7500  14.2500 Du        
   1852 ****       -31.5000   8.7500  14.5000 Du        
   1853 ****       -31.5000   8.7500  14.7500 Du        
   1854 ****       -31.5000   8.7500  15.0000 Du        
   1855 ****       -31.5000   8.7500  15.2500 Du        
   1856 ****       -31.5000   8.7500  15.5000 Du        
   1857 ****       -31.5000   8.7500  15.7500 Du        
   1858 ****       -31.5000   8.7500  16.0000 Du        
   1859 ****       -31.5000   9.0000  14.5000 Du        
   1860 ****       -31.5000   9.0000  14.7500 Du        
   1861 ****       -31.5000   9.0000  15.0000 Du        
   1862 ****       -31.5000   9.0000  15.2500 Du        
   1863 ****       -31.5000   9.0000  15.5000 Du        
   1864 ****       -31.5000   9.0000  15.7500 Du        
   1865 ****       -31.5000   9.0000  16.0000 Du        
   1866 ****       -31.5000   9.2500  14.7500 Du        
   1867 ****       -31.5000   9.2500  15.0000 Du        
   1868 ****       -31.5000   9.2500  15.2500 Du        
   1869 ****       -31.5000   9.2500  15.5000 Du        
   1870 ****       -31.5000   9.2500  15.7500 Du        
   1871 ****       -31.5000   9.2500  16.0000 Du        
   1872 ****       -31.2500  -1.2500   3.5000 Du        
   1873 ****       -31.2500  -1.2500   3.7500 Du        
   1874 ****       -31.2500  -1.2500   4.0000 Du        
   1875 ****       -31.2500  -1.2500   4.2500 Du        
   1876 ****       -31.2500  -1.2500   4.5000 Du        
   1877 ****       -31.2500  -1.0000   3.7500 Du        
   1878 ****       -31.2500  -1.0000   4.0000 Du        
   1879 ****       -31.2500  -1.0000   4.2500 Du        
   1880 ****       -31.2500  -1.0000   4.5000 Du        
   1881 ****       -31.2500  -0.7500   3.7500 Du        
   1882 ****       -31.2500  -0.7500   4.0000 Du        
   1883 ****       -31.2500  -0.7500   4.2500 Du        
   1884 ****       -31.2500   4.7500  12.0000 Du        
   1885 ****       -31.2500   4.7500  12.2500 Du        
   1886 ****       -31.2500   5.0000  11.7500 Du        
   1887 ****       -31.2500   5.0000  12.0000 Du        
   1888 ****       -31.2500   5.0000  12.2500 Du        
   1889 ****       -31.2500   5.0000  12.5000 Du        
   1890 ****       -31.2500   5.2500  11.5000 Du        
   1891 ****       -31.2500   5.2500  11.7500 Du        
   1892 ****       -31.2500   5.2500  12.0000 Du        
   1893 ****       -31.2500   5.2500  12.2500 Du        
   1894 ****       -31.2500   5.2500  12.5000 Du        
   1895 ****       -31.2500   5.5000  11.2500 Du        
   1896 ****       -31.2500   5.5000  11.5000 Du        
   1897 ****       -31.2500   5.5000  11.7500 Du        
   1898 ****       -31.2500   5.5000  12.0000 Du        
   1899 ****       -31.2500   5.5000  12.2500 Du        
   1900 ****       -31.2500   5.5000  12.5000 Du        
   1901 ****       -31.2500   5.7500  11.0000 Du        
   1902 ****       -31.2500   5.7500  11.2500 Du        
   1903 ****       -31.2500   5.7500  11.5000 Du        
   1904 ****       -31.2500   5.7500  11.7500 Du        
   1905 ****       -31.2500   5.7500  12.0000 Du        
   1906 ****       -31.2500   5.7500  12.2500 Du        
   1907 ****       -31.2500   5.7500  12.5000 Du        
   1908 ****       -31.2500   6.0000  10.7500 Du        
   1909 ****       -31.2500   6.0000  11.0000 Du        
   1910 ****       -31.2500   6.0000  11.2500 Du        
   1911 ****       -31.2500   6.0000  11.5000 Du        
   1912 ****       -31.2500   6.0000  11.7500 Du        
   1913 ****       -31.2500   6.0000  12.0000 Du        
   1914 ****       -31.2500   6.0000  12.2500 Du        
   1915 ****       -31.2500   6.0000  12.5000 Du        
   1916 ****       -31.2500   6.0000  12.7500 Du        
   1917 ****       -31.2500   6.2500  10.7500 Du        
   1918 ****       -31.2500   6.2500  11.0000 Du        
   1919 ****       -31.2500   6.2500  11.2500 Du        
   1920 ****       -31.2500   6.2500  11.5000 Du        
   1921 ****       -31.2500   6.2500  11.7500 Du        
   1922 ****       -31.2500   6.2500  12.0000 Du        
   1923 ****       -31.2500   6.2500  12.2500 Du        
   1924 ****       -31.2500   6.2500  12.5000 Du        
   1925 ****       -31.2500   6.2500  12.7500 Du        
   1926 ****       -31.2500   6.5000  11.0000 Du        
   1927 ****       -31.2500   6.5000  11.2500 Du        
   1928 ****       -31.2500   6.5000  11.5000 Du        
   1929 ****       -31.2500   6.5000  11.7500 Du        
   1930 ****       -31.2500   6.5000  12.0000 Du        
   1931 ****       -31.2500   6.5000  12.2500 Du        
   1932 ****       -31.2500   6.5000  12.5000 Du        
   1933 ****       -31.2500   6.5000  12.7500 Du        
   1934 ****       -31.2500   6.7500  11.0000 Du        
   1935 ****       -31.2500   6.7500  11.2500 Du        
   1936 ****       -31.2500   6.7500  11.5000 Du        
   1937 ****       -31.2500   6.7500  11.7500 Du        
   1938 ****       -31.2500   6.7500  12.0000 Du        
   1939 ****       -31.2500   6.7500  12.2500 Du        
   1940 ****       -31.2500   6.7500  12.5000 Du        
   1941 ****       -31.2500   6.7500  12.7500 Du        
   1942 ****       -31.2500   6.7500  13.0000 Du        
   1943 ****       -31.2500   7.0000  11.5000 Du        
   1944 ****       -31.2500   7.0000  11.7500 Du        
   1945 ****       -31.2500   7.0000  12.0000 Du        
   1946 ****       -31.2500   7.0000  12.2500 Du        
   1947 ****       -31.2500   7.0000  12.5000 Du        
   1948 ****       -31.2500   7.0000  12.7500 Du        
   1949 ****       -31.2500   7.0000  13.0000 Du        
   1950 ****       -31.2500   7.0000  13.2500 Du        
   1951 ****       -31.2500   7.2500  11.7500 Du        
   1952 ****       -31.2500   7.2500  12.0000 Du        
   1953 ****       -31.2500   7.2500  12.2500 Du        
   1954 ****       -31.2500   7.2500  12.5000 Du        
   1955 ****       -31.2500   7.2500  12.7500 Du        
   1956 ****       -31.2500   7.2500  13.0000 Du        
   1957 ****       -31.2500   7.2500  13.2500 Du        
   1958 ****       -31.2500   7.2500  13.5000 Du        
   1959 ****       -31.2500   7.5000  12.7500 Du        
   1960 ****       -31.2500   7.5000  13.0000 Du        
   1961 ****       -31.2500   7.5000  13.2500 Du        
   1962 ****       -31.2500   7.5000  13.5000 Du        
   1963 ****       -31.2500   7.5000  13.7500 Du        
   1964 ****       -31.2500   7.7500  12.7500 Du        
   1965 ****       -31.2500   7.7500  13.0000 Du        
   1966 ****       -31.2500   7.7500  13.2500 Du        
   1967 ****       -31.2500   7.7500  13.5000 Du        
   1968 ****       -31.2500   7.7500  13.7500 Du        
   1969 ****       -31.2500   7.7500  14.0000 Du        
   1970 ****       -31.2500   7.7500  14.2500 Du        
   1971 ****       -31.2500   7.7500  14.5000 Du        
   1972 ****       -31.2500   7.7500  14.7500 Du        
   1973 ****       -31.2500   8.0000  12.7500 Du        
   1974 ****       -31.2500   8.0000  13.0000 Du        
   1975 ****       -31.2500   8.0000  13.2500 Du        
   1976 ****       -31.2500   8.0000  13.5000 Du        
   1977 ****       -31.2500   8.0000  13.7500 Du        
   1978 ****       -31.2500   8.0000  14.0000 Du        
   1979 ****       -31.2500   8.0000  14.2500 Du        
   1980 ****       -31.2500   8.0000  14.5000 Du        
   1981 ****       -31.2500   8.0000  14.7500 Du        
   1982 ****       -31.2500   8.0000  15.0000 Du        
   1983 ****       -31.2500   8.0000  15.2500 Du        
   1984 ****       -31.2500   8.0000  15.5000 Du        
   1985 ****       -31.2500   8.2500  12.7500 Du        
   1986 ****       -31.2500   8.2500  13.0000 Du        
   1987 ****       -31.2500   8.2500  13.2500 Du        
   1988 ****       -31.2500   8.2500  13.5000 Du        
   1989 ****       -31.2500   8.2500  13.7500 Du        
   1990 ****       -31.2500   8.2500  14.0000 Du        
   1991 ****       -31.2500   8.2500  14.2500 Du        
   1992 ****       -31.2500   8.2500  14.5000 Du        
   1993 ****       -31.2500   8.2500  14.7500 Du        
   1994 ****       -31.2500   8.2500  15.0000 Du        
   1995 ****       -31.2500   8.2500  15.2500 Du        
   1996 ****       -31.2500   8.2500  15.5000 Du        
   1997 ****       -31.2500   8.2500  15.7500 Du        
   1998 ****       -31.2500   8.5000  13.5000 Du        
   1999 ****       -31.2500   8.5000  13.7500 Du        
   2000 ****       -31.2500   8.5000  14.0000 Du        
   2001 ****       -31.2500   8.5000  14.2500 Du        
   2002 ****       -31.2500   8.5000  14.5000 Du        
   2003 ****       -31.2500   8.5000  14.7500 Du        
   2004 ****       -31.2500   8.5000  15.0000 Du        
   2005 ****       -31.2500   8.5000  15.2500 Du        
   2006 ****       -31.2500   8.5000  15.5000 Du        
   2007 ****       -31.2500   8.7500  13.7500 Du        
   2008 ****       -31.2500   8.7500  14.0000 Du        
   2009 ****       -31.2500   8.7500  14.2500 Du        
   2010 ****       -31.2500   8.7500  14.5000 Du        
   2011 ****       -31.2500   8.7500  14.7500 Du        
   2012 ****       -31.2500   8.7500  15.0000 Du        
   2013 ****       -31.2500   8.7500  15.2500 Du        
   2014 ****       -31.2500   8.7500  15.5000 Du        
   2015 ****       -31.2500   8.7500  15.7500 Du        
   2016 ****       -31.2500  14.2500  18.2500 Du        
   2017 ****       -31.2500  14.2500  18.5000 Du        
   2018 ****       -31.0000  -1.2500   3.7500 Du        
   2019 ****       -31.0000  -1.2500   4.0000 Du        
   2020 ****       -31.0000  -1.0000   3.7500 Du        
   2021 ****       -31.0000  -1.0000   4.0000 Du        
   2022 ****       -31.0000  -1.0000   4.2500 Du        
   2023 ****       -31.0000  -0.7500   4.0000 Du        
   2024 ****       -31.0000   4.7500  12.0000 Du        
   2025 ****       -31.0000   4.7500  12.2500 Du        
   2026 ****       -31.0000   5.0000  11.7500 Du        
   2027 ****       -31.0000   5.0000  12.0000 Du        
   2028 ****       -31.0000   5.0000  12.2500 Du        
   2029 ****       -31.0000   5.0000  12.5000 Du        
   2030 ****       -31.0000   5.2500  11.5000 Du        
   2031 ****       -31.0000   5.2500  11.7500 Du        
   2032 ****       -31.0000   5.2500  12.0000 Du        
   2033 ****       -31.0000   5.2500  12.2500 Du        
   2034 ****       -31.0000   5.2500  12.5000 Du        
   2035 ****       -31.0000   5.5000  11.2500 Du        
   2036 ****       -31.0000   5.5000  11.5000 Du        
   2037 ****       -31.0000   5.5000  11.7500 Du        
   2038 ****       -31.0000   5.5000  12.0000 Du        
   2039 ****       -31.0000   5.5000  12.2500 Du        
   2040 ****       -31.0000   5.5000  12.5000 Du        
   2041 ****       -31.0000   5.7500  11.2500 Du        
   2042 ****       -31.0000   5.7500  11.5000 Du        
   2043 ****       -31.0000   5.7500  11.7500 Du        
   2044 ****       -31.0000   5.7500  12.0000 Du        
   2045 ****       -31.0000   5.7500  12.2500 Du        
   2046 ****       -31.0000   5.7500  12.5000 Du        
   2047 ****       -31.0000   6.0000  11.2500 Du        
   2048 ****       -31.0000   6.0000  11.5000 Du        
   2049 ****       -31.0000   6.0000  11.7500 Du        
   2050 ****       -31.0000   6.0000  12.0000 Du        
   2051 ****       -31.0000   6.0000  12.2500 Du        
   2052 ****       -31.0000   6.0000  12.5000 Du        
   2053 ****       -31.0000   6.0000  12.7500 Du        
   2054 ****       -31.0000   6.2500  11.0000 Du        
   2055 ****       -31.0000   6.2500  11.2500 Du        
   2056 ****       -31.0000   6.2500  11.5000 Du        
   2057 ****       -31.0000   6.2500  11.7500 Du        
   2058 ****       -31.0000   6.2500  12.0000 Du        
   2059 ****       -31.0000   6.2500  12.2500 Du        
   2060 ****       -31.0000   6.2500  12.5000 Du        
   2061 ****       -31.0000   6.2500  12.7500 Du        
   2062 ****       -31.0000   6.5000  11.2500 Du        
   2063 ****       -31.0000   6.5000  11.5000 Du        
   2064 ****       -31.0000   6.5000  11.7500 Du        
   2065 ****       -31.0000   6.5000  12.0000 Du        
   2066 ****       -31.0000   6.5000  12.2500 Du        
   2067 ****       -31.0000   6.5000  12.5000 Du        
   2068 ****       -31.0000   6.5000  12.7500 Du        
   2069 ****       -31.0000   6.7500  11.2500 Du        
   2070 ****       -31.0000   6.7500  11.5000 Du        
   2071 ****       -31.0000   6.7500  11.7500 Du        
   2072 ****       -31.0000   6.7500  12.0000 Du        
   2073 ****       -31.0000   6.7500  12.2500 Du        
   2074 ****       -31.0000   6.7500  12.5000 Du        
   2075 ****       -31.0000   6.7500  12.7500 Du        
   2076 ****       -31.0000   6.7500  13.0000 Du        
   2077 ****       -31.0000   7.0000  11.2500 Du        
   2078 ****       -31.0000   7.0000  11.5000 Du        
   2079 ****       -31.0000   7.0000  11.7500 Du        
   2080 ****       -31.0000   7.0000  12.0000 Du        
   2081 ****       -31.0000   7.0000  12.2500 Du        
   2082 ****       -31.0000   7.0000  12.5000 Du        
   2083 ****       -31.0000   7.0000  12.7500 Du        
   2084 ****       -31.0000   7.0000  13.0000 Du        
   2085 ****       -31.0000   7.0000  13.2500 Du        
   2086 ****       -31.0000   7.2500  11.5000 Du        
   2087 ****       -31.0000   7.2500  11.7500 Du        
   2088 ****       -31.0000   7.2500  12.0000 Du        
   2089 ****       -31.0000   7.2500  12.2500 Du        
   2090 ****       -31.0000   7.2500  12.5000 Du        
   2091 ****       -31.0000   7.2500  12.7500 Du        
   2092 ****       -31.0000   7.2500  13.0000 Du        
   2093 ****       -31.0000   7.2500  13.2500 Du        
   2094 ****       -31.0000   7.2500  13.5000 Du        
   2095 ****       -31.0000   7.5000  12.0000 Du        
   2096 ****       -31.0000   7.5000  12.2500 Du        
   2097 ****       -31.0000   7.5000  12.5000 Du        
   2098 ****       -31.0000   7.5000  12.7500 Du        
   2099 ****       -31.0000   7.5000  13.0000 Du        
   2100 ****       -31.0000   7.5000  13.2500 Du        
   2101 ****       -31.0000   7.5000  13.5000 Du        
   2102 ****       -31.0000   7.5000  13.7500 Du        
   2103 ****       -31.0000   7.7500  12.0000 Du        
   2104 ****       -31.0000   7.7500  12.2500 Du        
   2105 ****       -31.0000   7.7500  12.5000 Du        
   2106 ****       -31.0000   7.7500  12.7500 Du        
   2107 ****       -31.0000   7.7500  13.0000 Du        
   2108 ****       -31.0000   7.7500  13.2500 Du        
   2109 ****       -31.0000   7.7500  13.5000 Du        
   2110 ****       -31.0000   7.7500  13.7500 Du        
   2111 ****       -31.0000   7.7500  14.0000 Du        
   2112 ****       -31.0000   7.7500  14.2500 Du        
   2113 ****       -31.0000   8.0000  12.2500 Du        
   2114 ****       -31.0000   8.0000  12.5000 Du        
   2115 ****       -31.0000   8.0000  12.7500 Du        
   2116 ****       -31.0000   8.0000  13.0000 Du        
   2117 ****       -31.0000   8.0000  13.2500 Du        
   2118 ****       -31.0000   8.0000  13.5000 Du        
   2119 ****       -31.0000   8.0000  13.7500 Du        
   2120 ****       -31.0000   8.0000  14.0000 Du        
   2121 ****       -31.0000   8.0000  14.2500 Du        
   2122 ****       -31.0000   8.0000  14.5000 Du        
   2123 ****       -31.0000   8.0000  14.7500 Du        
   2124 ****       -31.0000   8.0000  15.0000 Du        
   2125 ****       -31.0000   8.2500  12.5000 Du        
   2126 ****       -31.0000   8.2500  12.7500 Du        
   2127 ****       -31.0000   8.2500  13.0000 Du        
   2128 ****       -31.0000   8.2500  13.2500 Du        
   2129 ****       -31.0000   8.2500  13.5000 Du        
   2130 ****       -31.0000   8.2500  13.7500 Du        
   2131 ****       -31.0000   8.2500  14.0000 Du        
   2132 ****       -31.0000   8.2500  14.2500 Du        
   2133 ****       -31.0000   8.2500  14.5000 Du        
   2134 ****       -31.0000   8.2500  14.7500 Du        
   2135 ****       -31.0000   8.2500  15.0000 Du        
   2136 ****       -31.0000   8.2500  15.2500 Du        
   2137 ****       -31.0000   8.5000  12.7500 Du        
   2138 ****       -31.0000   8.5000  13.0000 Du        
   2139 ****       -31.0000   8.5000  13.2500 Du        
   2140 ****       -31.0000   8.5000  13.5000 Du        
   2141 ****       -31.0000   8.5000  13.7500 Du        
   2142 ****       -31.0000   8.5000  14.0000 Du        
   2143 ****       -31.0000   8.5000  14.2500 Du        
   2144 ****       -31.0000   8.5000  14.5000 Du        
   2145 ****       -31.0000   8.5000  14.7500 Du        
   2146 ****       -31.0000   8.5000  15.0000 Du        
   2147 ****       -31.0000   8.7500  13.7500 Du        
   2148 ****       -31.0000   8.7500  14.0000 Du        
   2149 ****       -31.0000   8.7500  14.2500 Du        
   2150 ****       -31.0000  14.2500  18.0000 Du        
   2151 ****       -31.0000  14.2500  18.2500 Du        
   2152 ****       -31.0000  14.2500  18.5000 Du        
   2153 ****       -31.0000  14.2500  18.7500 Du        
   2154 ****       -31.0000  14.5000  18.5000 Du        
   2155 ****       -30.7500  -1.0000   4.0000 Du        
   2156 ****       -30.7500   4.7500  12.0000 Du        
   2157 ****       -30.7500   4.7500  12.2500 Du        
   2158 ****       -30.7500   5.0000  11.7500 Du        
   2159 ****       -30.7500   5.0000  12.0000 Du        
   2160 ****       -30.7500   5.0000  12.2500 Du        
   2161 ****       -30.7500   5.2500  11.5000 Du        
   2162 ****       -30.7500   5.2500  11.7500 Du        
   2163 ****       -30.7500   5.2500  12.0000 Du        
   2164 ****       -30.7500   5.2500  12.2500 Du        
   2165 ****       -30.7500   5.2500  12.5000 Du        
   2166 ****       -30.7500   5.5000  11.7500 Du        
   2167 ****       -30.7500   5.5000  12.0000 Du        
   2168 ****       -30.7500   5.5000  12.2500 Du        
   2169 ****       -30.7500   5.5000  12.5000 Du        
   2170 ****       -30.7500   5.7500  11.5000 Du        
   2171 ****       -30.7500   5.7500  11.7500 Du        
   2172 ****       -30.7500   5.7500  12.0000 Du        
   2173 ****       -30.7500   5.7500  12.2500 Du        
   2174 ****       -30.7500   5.7500  12.5000 Du        
   2175 ****       -30.7500   6.0000  11.5000 Du        
   2176 ****       -30.7500   6.0000  11.7500 Du        
   2177 ****       -30.7500   6.0000  12.0000 Du        
   2178 ****       -30.7500   6.0000  12.2500 Du        
   2179 ****       -30.7500   6.0000  12.5000 Du        
   2180 ****       -30.7500   6.2500  11.5000 Du        
   2181 ****       -30.7500   6.2500  11.7500 Du        
   2182 ****       -30.7500   6.2500  12.0000 Du        
   2183 ****       -30.7500   6.2500  12.2500 Du        
   2184 ****       -30.7500   6.2500  12.5000 Du        
   2185 ****       -30.7500   6.2500  12.7500 Du        
   2186 ****       -30.7500   6.5000  11.5000 Du        
   2187 ****       -30.7500   6.5000  11.7500 Du        
   2188 ****       -30.7500   6.5000  12.0000 Du        
   2189 ****       -30.7500   6.5000  12.2500 Du        
   2190 ****       -30.7500   6.5000  12.5000 Du        
   2191 ****       -30.7500   6.5000  12.7500 Du        
   2192 ****       -30.7500   6.7500  11.5000 Du        
   2193 ****       -30.7500   6.7500  11.7500 Du        
   2194 ****       -30.7500   6.7500  12.0000 Du        
   2195 ****       -30.7500   6.7500  12.2500 Du        
   2196 ****       -30.7500   6.7500  12.5000 Du        
   2197 ****       -30.7500   6.7500  12.7500 Du        
   2198 ****       -30.7500   6.7500  13.0000 Du        
   2199 ****       -30.7500   7.0000  11.5000 Du        
   2200 ****       -30.7500   7.0000  11.7500 Du        
   2201 ****       -30.7500   7.0000  12.0000 Du        
   2202 ****       -30.7500   7.0000  12.2500 Du        
   2203 ****       -30.7500   7.0000  12.5000 Du        
   2204 ****       -30.7500   7.0000  12.7500 Du        
   2205 ****       -30.7500   7.0000  13.0000 Du        
   2206 ****       -30.7500   7.2500  11.5000 Du        
   2207 ****       -30.7500   7.2500  11.7500 Du        
   2208 ****       -30.7500   7.2500  12.0000 Du        
   2209 ****       -30.7500   7.2500  12.2500 Du        
   2210 ****       -30.7500   7.2500  12.5000 Du        
   2211 ****       -30.7500   7.2500  12.7500 Du        
   2212 ****       -30.7500   7.2500  13.0000 Du        
   2213 ****       -30.7500   7.2500  13.2500 Du        
   2214 ****       -30.7500   7.5000  11.5000 Du        
   2215 ****       -30.7500   7.5000  11.7500 Du        
   2216 ****       -30.7500   7.5000  12.0000 Du        
   2217 ****       -30.7500   7.5000  12.2500 Du        
   2218 ****       -30.7500   7.5000  12.5000 Du        
   2219 ****       -30.7500   7.5000  12.7500 Du        
   2220 ****       -30.7500   7.5000  13.0000 Du        
   2221 ****       -30.7500   7.5000  13.2500 Du        
   2222 ****       -30.7500   7.5000  13.5000 Du        
   2223 ****       -30.7500   7.7500  11.7500 Du        
   2224 ****       -30.7500   7.7500  12.0000 Du        
   2225 ****       -30.7500   7.7500  12.2500 Du        
   2226 ****       -30.7500   7.7500  12.5000 Du        
   2227 ****       -30.7500   7.7500  12.7500 Du        
   2228 ****       -30.7500   7.7500  13.0000 Du        
   2229 ****       -30.7500   7.7500  13.2500 Du        
   2230 ****       -30.7500   7.7500  13.5000 Du        
   2231 ****       -30.7500   7.7500  13.7500 Du        
   2232 ****       -30.7500   7.7500  14.0000 Du        
   2233 ****       -30.7500   8.0000  11.7500 Du        
   2234 ****       -30.7500   8.0000  12.0000 Du        
   2235 ****       -30.7500   8.0000  12.2500 Du        
   2236 ****       -30.7500   8.0000  12.5000 Du        
   2237 ****       -30.7500   8.0000  12.7500 Du        
   2238 ****       -30.7500   8.0000  13.0000 Du        
   2239 ****       -30.7500   8.0000  13.2500 Du        
   2240 ****       -30.7500   8.0000  13.5000 Du        
   2241 ****       -30.7500   8.0000  13.7500 Du        
   2242 ****       -30.7500   8.0000  14.0000 Du        
   2243 ****       -30.7500   8.0000  14.2500 Du        
   2244 ****       -30.7500   8.0000  14.5000 Du        
   2245 ****       -30.7500   8.2500  12.2500 Du        
   2246 ****       -30.7500   8.2500  12.5000 Du        
   2247 ****       -30.7500   8.2500  12.7500 Du        
   2248 ****       -30.7500   8.2500  13.0000 Du        
   2249 ****       -30.7500   8.2500  13.2500 Du        
   2250 ****       -30.7500   8.2500  13.5000 Du        
   2251 ****       -30.7500   8.2500  13.7500 Du        
   2252 ****       -30.7500   8.2500  14.0000 Du        
   2253 ****       -30.7500   8.2500  14.2500 Du        
   2254 ****       -30.7500   8.2500  14.5000 Du        
   2255 ****       -30.7500   8.2500  14.7500 Du        
   2256 ****       -30.7500   8.5000  12.7500 Du        
   2257 ****       -30.7500   8.5000  13.0000 Du        
   2258 ****       -30.7500   8.5000  13.2500 Du        
   2259 ****       -30.7500   8.5000  13.5000 Du        
   2260 ****       -30.7500   8.5000  13.7500 Du        
   2261 ****       -30.7500   8.5000  14.0000 Du        
   2262 ****       -30.7500   8.5000  14.2500 Du        
   2263 ****       -30.7500   8.7500  13.0000 Du        
   2264 ****       -30.7500  14.2500  18.0000 Du        
   2265 ****       -30.7500  14.2500  18.2500 Du        
   2266 ****       -30.7500  14.2500  18.5000 Du        
   2267 ****       -30.7500  14.2500  18.7500 Du        
   2268 ****       -30.7500  14.5000  18.2500 Du        
   2269 ****       -30.7500  14.5000  18.5000 Du        
   2270 ****       -30.7500  14.5000  18.7500 Du        
   2271 ****       -30.7500  14.7500  18.7500 Du        
   2272 ****       -30.5000   5.0000  12.0000 Du        
   2273 ****       -30.5000   5.0000  12.2500 Du        
   2274 ****       -30.5000   5.2500  11.7500 Du        
   2275 ****       -30.5000   5.2500  12.0000 Du        
   2276 ****       -30.5000   5.2500  12.2500 Du        
   2277 ****       -30.5000   5.5000  11.7500 Du        
   2278 ****       -30.5000   5.5000  12.0000 Du        
   2279 ****       -30.5000   5.5000  12.2500 Du        
   2280 ****       -30.5000   5.7500  11.7500 Du        
   2281 ****       -30.5000   5.7500  12.0000 Du        
   2282 ****       -30.5000   5.7500  12.2500 Du        
   2283 ****       -30.5000   5.7500  12.5000 Du        
   2284 ****       -30.5000   6.0000  11.7500 Du        
   2285 ****       -30.5000   6.0000  12.0000 Du        
   2286 ****       -30.5000   6.0000  12.2500 Du        
   2287 ****       -30.5000   6.0000  12.5000 Du        
   2288 ****       -30.5000   6.2500  11.7500 Du        
   2289 ****       -30.5000   6.2500  12.0000 Du        
   2290 ****       -30.5000   6.2500  12.2500 Du        
   2291 ****       -30.5000   6.2500  12.5000 Du        
   2292 ****       -30.5000   6.5000  11.7500 Du        
   2293 ****       -30.5000   6.5000  12.0000 Du        
   2294 ****       -30.5000   6.5000  12.2500 Du        
   2295 ****       -30.5000   6.5000  12.5000 Du        
   2296 ****       -30.5000   6.5000  12.7500 Du        
   2297 ****       -30.5000   6.7500  11.5000 Du        
   2298 ****       -30.5000   6.7500  11.7500 Du        
   2299 ****       -30.5000   6.7500  12.0000 Du        
   2300 ****       -30.5000   6.7500  12.2500 Du        
   2301 ****       -30.5000   6.7500  12.5000 Du        
   2302 ****       -30.5000   6.7500  12.7500 Du        
   2303 ****       -30.5000   7.0000  11.5000 Du        
   2304 ****       -30.5000   7.0000  11.7500 Du        
   2305 ****       -30.5000   7.0000  12.0000 Du        
   2306 ****       -30.5000   7.0000  12.2500 Du        
   2307 ****       -30.5000   7.0000  12.5000 Du        
   2308 ****       -30.5000   7.0000  12.7500 Du        
   2309 ****       -30.5000   7.0000  13.0000 Du        
   2310 ****       -30.5000   7.2500  11.5000 Du        
   2311 ****       -30.5000   7.2500  11.7500 Du        
   2312 ****       -30.5000   7.2500  12.0000 Du        
   2313 ****       -30.5000   7.2500  12.2500 Du        
   2314 ****       -30.5000   7.2500  12.5000 Du        
   2315 ****       -30.5000   7.2500  12.7500 Du        
   2316 ****       -30.5000   7.2500  13.0000 Du        
   2317 ****       -30.5000   7.2500  13.2500 Du        
   2318 ****       -30.5000   7.5000  11.5000 Du        
   2319 ****       -30.5000   7.5000  11.7500 Du        
   2320 ****       -30.5000   7.5000  12.0000 Du        
   2321 ****       -30.5000   7.5000  12.2500 Du        
   2322 ****       -30.5000   7.5000  12.5000 Du        
   2323 ****       -30.5000   7.5000  12.7500 Du        
   2324 ****       -30.5000   7.5000  13.0000 Du        
   2325 ****       -30.5000   7.5000  13.2500 Du        
   2326 ****       -30.5000   7.5000  13.5000 Du        
   2327 ****       -30.5000   7.7500  11.5000 Du        
   2328 ****       -30.5000   7.7500  11.7500 Du        
   2329 ****       -30.5000   7.7500  12.0000 Du        
   2330 ****       -30.5000   7.7500  12.2500 Du        
   2331 ****       -30.5000   7.7500  12.5000 Du        
   2332 ****       -30.5000   7.7500  12.7500 Du        
   2333 ****       -30.5000   7.7500  13.0000 Du        
   2334 ****       -30.5000   7.7500  13.2500 Du        
   2335 ****       -30.5000   7.7500  13.5000 Du        
   2336 ****       -30.5000   7.7500  13.7500 Du        
   2337 ****       -30.5000   8.0000  11.5000 Du        
   2338 ****       -30.5000   8.0000  11.7500 Du        
   2339 ****       -30.5000   8.0000  12.0000 Du        
   2340 ****       -30.5000   8.0000  12.2500 Du        
   2341 ****       -30.5000   8.0000  12.5000 Du        
   2342 ****       -30.5000   8.0000  12.7500 Du        
   2343 ****       -30.5000   8.0000  13.0000 Du        
   2344 ****       -30.5000   8.0000  13.2500 Du        
   2345 ****       -30.5000   8.0000  13.5000 Du        
   2346 ****       -30.5000   8.0000  13.7500 Du        
   2347 ****       -30.5000   8.0000  14.0000 Du        
   2348 ****       -30.5000   8.2500  11.5000 Du        
   2349 ****       -30.5000   8.2500  11.7500 Du        
   2350 ****       -30.5000   8.2500  12.0000 Du        
   2351 ****       -30.5000   8.2500  12.2500 Du        
   2352 ****       -30.5000   8.2500  12.5000 Du        
   2353 ****       -30.5000   8.2500  12.7500 Du        
   2354 ****       -30.5000   8.2500  13.0000 Du        
   2355 ****       -30.5000   8.2500  13.2500 Du        
   2356 ****       -30.5000   8.2500  13.5000 Du        
   2357 ****       -30.5000   8.2500  13.7500 Du        
   2358 ****       -30.5000   8.2500  14.0000 Du        
   2359 ****       -30.5000   8.5000  12.0000 Du        
   2360 ****       -30.5000   8.5000  12.2500 Du        
   2361 ****       -30.5000   8.5000  12.5000 Du        
   2362 ****       -30.5000   8.5000  12.7500 Du        
   2363 ****       -30.5000   8.5000  13.0000 Du        
   2364 ****       -30.5000   8.5000  13.2500 Du        
   2365 ****       -30.5000   8.5000  13.5000 Du        
   2366 ****       -30.5000   8.5000  13.7500 Du        
   2367 ****       -30.5000   8.7500  12.2500 Du        
   2368 ****       -30.5000   8.7500  12.5000 Du        
   2369 ****       -30.5000   8.7500  12.7500 Du        
   2370 ****       -30.5000   8.7500  13.0000 Du        
   2371 ****       -30.5000  14.2500  18.0000 Du        
   2372 ****       -30.5000  14.2500  18.2500 Du        
   2373 ****       -30.5000  14.2500  18.5000 Du        
   2374 ****       -30.5000  14.2500  18.7500 Du        
   2375 ****       -30.5000  14.5000  18.2500 Du        
   2376 ****       -30.5000  14.5000  18.5000 Du        
   2377 ****       -30.5000  14.5000  18.7500 Du        
   2378 ****       -30.5000  14.5000  19.0000 Du        
   2379 ****       -30.5000  14.7500  18.2500 Du        
   2380 ****       -30.5000  14.7500  18.5000 Du        
   2381 ****       -30.5000  14.7500  18.7500 Du        
   2382 ****       -30.5000  14.7500  19.0000 Du        
   2383 ****       -30.2500   5.2500  12.0000 Du        
   2384 ****       -30.2500   5.2500  12.2500 Du        
   2385 ****       -30.2500   5.5000  12.0000 Du        
   2386 ****       -30.2500   5.5000  12.2500 Du        
   2387 ****       -30.2500   5.7500  12.0000 Du        
   2388 ****       -30.2500   5.7500  12.2500 Du        
   2389 ****       -30.2500   5.7500  12.5000 Du        
   2390 ****       -30.2500   6.0000  12.0000 Du        
   2391 ****       -30.2500   6.0000  12.2500 Du        
   2392 ****       -30.2500   6.0000  12.5000 Du        
   2393 ****       -30.2500   6.2500  12.0000 Du        
   2394 ****       -30.2500   6.2500  12.2500 Du        
   2395 ****       -30.2500   6.2500  12.5000 Du        
   2396 ****       -30.2500   6.5000  12.0000 Du        
   2397 ****       -30.2500   6.5000  12.2500 Du        
   2398 ****       -30.2500   6.5000  12.5000 Du        
   2399 ****       -30.2500   6.5000  12.7500 Du        
   2400 ****       -30.2500   6.7500  11.7500 Du        
   2401 ****       -30.2500   6.7500  12.0000 Du        
   2402 ****       -30.2500   6.7500  12.2500 Du        
   2403 ****       -30.2500   6.7500  12.5000 Du        
   2404 ****       -30.2500   6.7500  12.7500 Du        
   2405 ****       -30.2500   7.0000  11.7500 Du        
   2406 ****       -30.2500   7.0000  12.0000 Du        
   2407 ****       -30.2500   7.0000  12.2500 Du        
   2408 ****       -30.2500   7.0000  12.5000 Du        
   2409 ****       -30.2500   7.0000  12.7500 Du        
   2410 ****       -30.2500   7.0000  13.0000 Du        
   2411 ****       -30.2500   7.2500  11.7500 Du        
   2412 ****       -30.2500   7.2500  12.0000 Du        
   2413 ****       -30.2500   7.2500  12.2500 Du        
   2414 ****       -30.2500   7.2500  12.5000 Du        
   2415 ****       -30.2500   7.2500  12.7500 Du        
   2416 ****       -30.2500   7.2500  13.0000 Du        
   2417 ****       -30.2500   7.2500  13.2500 Du        
   2418 ****       -30.2500   7.5000  11.7500 Du        
   2419 ****       -30.2500   7.5000  12.0000 Du        
   2420 ****       -30.2500   7.5000  12.2500 Du        
   2421 ****       -30.2500   7.5000  12.5000 Du        
   2422 ****       -30.2500   7.5000  12.7500 Du        
   2423 ****       -30.2500   7.5000  13.0000 Du        
   2424 ****       -30.2500   7.5000  13.2500 Du        
   2425 ****       -30.2500   7.5000  13.5000 Du        
   2426 ****       -30.2500   7.7500  11.5000 Du        
   2427 ****       -30.2500   7.7500  11.7500 Du        
   2428 ****       -30.2500   7.7500  12.0000 Du        
   2429 ****       -30.2500   7.7500  12.2500 Du        
   2430 ****       -30.2500   7.7500  12.5000 Du        
   2431 ****       -30.2500   7.7500  12.7500 Du        
   2432 ****       -30.2500   7.7500  13.0000 Du        
   2433 ****       -30.2500   7.7500  13.2500 Du        
   2434 ****       -30.2500   7.7500  13.5000 Du        
   2435 ****       -30.2500   7.7500  13.7500 Du        
   2436 ****       -30.2500   8.0000  11.5000 Du        
   2437 ****       -30.2500   8.0000  11.7500 Du        
   2438 ****       -30.2500   8.0000  12.0000 Du        
   2439 ****       -30.2500   8.0000  12.2500 Du        
   2440 ****       -30.2500   8.0000  12.5000 Du        
   2441 ****       -30.2500   8.0000  12.7500 Du        
   2442 ****       -30.2500   8.0000  13.0000 Du        
   2443 ****       -30.2500   8.0000  13.2500 Du        
   2444 ****       -30.2500   8.0000  13.5000 Du        
   2445 ****       -30.2500   8.0000  13.7500 Du        
   2446 ****       -30.2500   8.2500  11.5000 Du        
   2447 ****       -30.2500   8.2500  11.7500 Du        
   2448 ****       -30.2500   8.2500  12.0000 Du        
   2449 ****       -30.2500   8.2500  12.2500 Du        
   2450 ****       -30.2500   8.2500  12.5000 Du        
   2451 ****       -30.2500   8.2500  12.7500 Du        
   2452 ****       -30.2500   8.2500  13.0000 Du        
   2453 ****       -30.2500   8.2500  13.2500 Du        
   2454 ****       -30.2500   8.2500  13.5000 Du        
   2455 ****       -30.2500   8.2500  13.7500 Du        
   2456 ****       -30.2500   8.5000  11.7500 Du        
   2457 ****       -30.2500   8.5000  12.0000 Du        
   2458 ****       -30.2500   8.5000  12.2500 Du        
   2459 ****       -30.2500   8.5000  12.5000 Du        
   2460 ****       -30.2500   8.5000  12.7500 Du        
   2461 ****       -30.2500   8.5000  13.0000 Du        
   2462 ****       -30.2500   8.5000  13.2500 Du        
   2463 ****       -30.2500   8.5000  13.5000 Du        
   2464 ****       -30.2500   8.7500  11.7500 Du        
   2465 ****       -30.2500   8.7500  12.0000 Du        
   2466 ****       -30.2500   8.7500  12.2500 Du        
   2467 ****       -30.2500   8.7500  12.5000 Du        
   2468 ****       -30.2500   8.7500  12.7500 Du        
   2469 ****       -30.2500  14.2500  18.2500 Du        
   2470 ****       -30.2500  14.2500  18.5000 Du        
   2471 ****       -30.2500  14.5000  18.0000 Du        
   2472 ****       -30.2500  14.5000  18.2500 Du        
   2473 ****       -30.2500  14.5000  18.5000 Du        
   2474 ****       -30.2500  14.5000  18.7500 Du        
   2475 ****       -30.2500  14.7500  18.0000 Du        
   2476 ****       -30.2500  14.7500  18.2500 Du        
   2477 ****       -30.2500  14.7500  18.5000 Du        
   2478 ****       -30.2500  14.7500  18.7500 Du        
   2479 ****       -30.0000  -1.2500   3.5000 Du        
   2480 ****       -30.0000  -1.2500   3.7500 Du        
   2481 ****       -30.0000   6.0000  12.2500 Du        
   2482 ****       -30.0000   6.0000  12.5000 Du        
   2483 ****       -30.0000   6.2500  12.2500 Du        
   2484 ****       -30.0000   6.2500  12.5000 Du        
   2485 ****       -30.0000   6.5000  12.2500 Du        
   2486 ****       -30.0000   6.5000  12.5000 Du        
   2487 ****       -30.0000   6.5000  12.7500 Du        
   2488 ****       -30.0000   6.7500  12.0000 Du        
   2489 ****       -30.0000   6.7500  12.2500 Du        
   2490 ****       -30.0000   6.7500  12.5000 Du        
   2491 ****       -30.0000   6.7500  12.7500 Du        
   2492 ****       -30.0000   7.0000  12.0000 Du        
   2493 ****       -30.0000   7.0000  12.2500 Du        
   2494 ****       -30.0000   7.0000  12.5000 Du        
   2495 ****       -30.0000   7.0000  12.7500 Du        
   2496 ****       -30.0000   7.0000  13.0000 Du        
   2497 ****       -30.0000   7.2500  12.0000 Du        
   2498 ****       -30.0000   7.2500  12.2500 Du        
   2499 ****       -30.0000   7.2500  12.5000 Du        
   2500 ****       -30.0000   7.2500  12.7500 Du        
   2501 ****       -30.0000   7.2500  13.0000 Du        
   2502 ****       -30.0000   7.2500  13.2500 Du        
   2503 ****       -30.0000   7.5000  11.7500 Du        
   2504 ****       -30.0000   7.5000  12.0000 Du        
   2505 ****       -30.0000   7.5000  12.2500 Du        
   2506 ****       -30.0000   7.5000  12.5000 Du        
   2507 ****       -30.0000   7.5000  12.7500 Du        
   2508 ****       -30.0000   7.5000  13.0000 Du        
   2509 ****       -30.0000   7.5000  13.2500 Du        
   2510 ****       -30.0000   7.7500  11.7500 Du        
   2511 ****       -30.0000   7.7500  12.0000 Du        
   2512 ****       -30.0000   7.7500  12.2500 Du        
   2513 ****       -30.0000   7.7500  12.5000 Du        
   2514 ****       -30.0000   7.7500  12.7500 Du        
   2515 ****       -30.0000   7.7500  13.0000 Du        
   2516 ****       -30.0000   7.7500  13.2500 Du        
   2517 ****       -30.0000   7.7500  13.5000 Du        
   2518 ****       -30.0000   8.0000  11.5000 Du        
   2519 ****       -30.0000   8.0000  11.7500 Du        
   2520 ****       -30.0000   8.0000  12.0000 Du        
   2521 ****       -30.0000   8.0000  12.2500 Du        
   2522 ****       -30.0000   8.0000  12.5000 Du        
   2523 ****       -30.0000   8.0000  12.7500 Du        
   2524 ****       -30.0000   8.0000  13.0000 Du        
   2525 ****       -30.0000   8.0000  13.2500 Du        
   2526 ****       -30.0000   8.0000  13.5000 Du        
   2527 ****       -30.0000   8.2500  11.5000 Du        
   2528 ****       -30.0000   8.2500  11.7500 Du        
   2529 ****       -30.0000   8.2500  12.0000 Du        
   2530 ****       -30.0000   8.2500  12.2500 Du        
   2531 ****       -30.0000   8.2500  12.5000 Du        
   2532 ****       -30.0000   8.2500  12.7500 Du        
   2533 ****       -30.0000   8.2500  13.0000 Du        
   2534 ****       -30.0000   8.2500  13.2500 Du        
   2535 ****       -30.0000   8.2500  13.5000 Du        
   2536 ****       -30.0000   8.5000  11.5000 Du        
   2537 ****       -30.0000   8.5000  11.7500 Du        
   2538 ****       -30.0000   8.5000  12.0000 Du        
   2539 ****       -30.0000   8.5000  12.2500 Du        
   2540 ****       -30.0000   8.5000  12.5000 Du        
   2541 ****       -30.0000   8.5000  12.7500 Du        
   2542 ****       -30.0000   8.5000  13.0000 Du        
   2543 ****       -30.0000   8.7500  11.5000 Du        
   2544 ****       -30.0000   8.7500  11.7500 Du        
   2545 ****       -30.0000   8.7500  12.0000 Du        
   2546 ****       -30.0000   8.7500  12.2500 Du        
   2547 ****       -30.0000   8.7500  12.5000 Du        
   2548 ****       -30.0000   8.7500  12.7500 Du        
   2549 ****       -30.0000   9.0000  11.5000 Du        
   2550 ****       -30.0000   9.0000  11.7500 Du        
   2551 ****       -30.0000   9.0000  12.0000 Du        
   2552 ****       -30.0000   9.0000  12.2500 Du        
   2553 ****       -30.0000  14.5000  18.0000 Du        
   2554 ****       -30.0000  14.5000  18.2500 Du        
   2555 ****       -30.0000  14.5000  18.5000 Du        
   2556 ****       -30.0000  14.7500  17.7500 Du        
   2557 ****       -30.0000  14.7500  18.0000 Du        
   2558 ****       -30.0000  14.7500  18.2500 Du        
   2559 ****       -30.0000  14.7500  18.5000 Du        
   2560 ****       -29.7500  -1.5000   3.7500 Du        
   2561 ****       -29.7500  -1.2500   3.5000 Du        
   2562 ****       -29.7500  -1.2500   3.7500 Du        
   2563 ****       -29.7500  -1.2500   4.0000 Du        
   2564 ****       -29.7500  -1.0000   3.7500 Du        
   2565 ****       -29.7500  -1.0000   4.0000 Du        
   2566 ****       -29.7500   6.5000  12.5000 Du        
   2567 ****       -29.7500   6.7500  12.5000 Du        
   2568 ****       -29.7500   6.7500  12.7500 Du        
   2569 ****       -29.7500   7.0000  12.2500 Du        
   2570 ****       -29.7500   7.0000  12.5000 Du        
   2571 ****       -29.7500   7.0000  12.7500 Du        
   2572 ****       -29.7500   7.0000  13.0000 Du        
   2573 ****       -29.7500   7.2500  12.0000 Du        
   2574 ****       -29.7500   7.2500  12.2500 Du        
   2575 ****       -29.7500   7.2500  12.5000 Du        
   2576 ****       -29.7500   7.2500  12.7500 Du        
   2577 ****       -29.7500   7.2500  13.0000 Du        
   2578 ****       -29.7500   7.5000  12.0000 Du        
   2579 ****       -29.7500   7.5000  12.2500 Du        
   2580 ****       -29.7500   7.5000  12.5000 Du        
   2581 ****       -29.7500   7.5000  12.7500 Du        
   2582 ****       -29.7500   7.5000  13.0000 Du        
   2583 ****       -29.7500   7.7500  11.7500 Du        
   2584 ****       -29.7500   7.7500  12.0000 Du        
   2585 ****       -29.7500   7.7500  12.2500 Du        
   2586 ****       -29.7500   7.7500  12.5000 Du        
   2587 ****       -29.7500   7.7500  12.7500 Du        
   2588 ****       -29.7500   7.7500  13.0000 Du        
   2589 ****       -29.7500   7.7500  13.2500 Du        
   2590 ****       -29.7500   8.0000  11.5000 Du        
   2591 ****       -29.7500   8.0000  11.7500 Du        
   2592 ****       -29.7500   8.0000  12.0000 Du        
   2593 ****       -29.7500   8.0000  12.2500 Du        
   2594 ****       -29.7500   8.0000  12.5000 Du        
   2595 ****       -29.7500   8.0000  12.7500 Du        
   2596 ****       -29.7500   8.0000  13.0000 Du        
   2597 ****       -29.7500   8.0000  13.2500 Du        
   2598 ****       -29.7500   8.2500  11.5000 Du        
   2599 ****       -29.7500   8.2500  11.7500 Du        
   2600 ****       -29.7500   8.2500  12.0000 Du        
   2601 ****       -29.7500   8.2500  12.2500 Du        
   2602 ****       -29.7500   8.2500  12.5000 Du        
   2603 ****       -29.7500   8.2500  12.7500 Du        
   2604 ****       -29.7500   8.2500  13.0000 Du        
   2605 ****       -29.7500   8.2500  13.2500 Du        
   2606 ****       -29.7500   8.5000  11.5000 Du        
   2607 ****       -29.7500   8.5000  11.7500 Du        
   2608 ****       -29.7500   8.5000  12.0000 Du        
   2609 ****       -29.7500   8.5000  12.2500 Du        
   2610 ****       -29.7500   8.5000  12.5000 Du        
   2611 ****       -29.7500   8.5000  12.7500 Du        
   2612 ****       -29.7500   8.5000  13.0000 Du        
   2613 ****       -29.7500   8.7500  11.5000 Du        
   2614 ****       -29.7500   8.7500  11.7500 Du        
   2615 ****       -29.7500   8.7500  12.0000 Du        
   2616 ****       -29.7500   8.7500  12.2500 Du        
   2617 ****       -29.7500   8.7500  12.5000 Du        
   2618 ****       -29.7500   9.0000  11.5000 Du        
   2619 ****       -29.7500   9.0000  11.7500 Du        
   2620 ****       -29.7500   9.0000  12.0000 Du        
   2621 ****       -29.7500   9.2500  11.5000 Du        
   2622 ****       -29.7500  14.7500  17.7500 Du        
   2623 ****       -29.7500  14.7500  18.0000 Du        
   2624 ****       -29.7500  14.7500  18.2500 Du        
   2625 ****       -29.5000  -1.2500   3.7500 Du        
   2626 ****       -29.5000  -1.0000   3.7500 Du        
   2627 ****       -29.5000  -1.0000   4.0000 Du        
   2628 ****       -29.5000   7.2500  12.5000 Du        
   2629 ****       -29.5000   7.2500  12.7500 Du        
   2630 ****       -29.5000   7.5000  12.2500 Du        
   2631 ****       -29.5000   7.5000  12.5000 Du        
   2632 ****       -29.5000   7.5000  12.7500 Du        
   2633 ****       -29.5000   7.7500  12.0000 Du        
   2634 ****       -29.5000   7.7500  12.2500 Du        
   2635 ****       -29.5000   7.7500  12.5000 Du        
   2636 ****       -29.5000   7.7500  12.7500 Du        
   2637 ****       -29.5000   8.0000  11.7500 Du        
   2638 ****       -29.5000   8.0000  12.0000 Du        
   2639 ****       -29.5000   8.0000  12.2500 Du        
   2640 ****       -29.5000   8.0000  12.5000 Du        
   2641 ****       -29.5000   8.0000  12.7500 Du        
   2642 ****       -29.5000   8.0000  13.0000 Du        
   2643 ****       -29.5000   8.2500  11.5000 Du        
   2644 ****       -29.5000   8.2500  11.7500 Du        
   2645 ****       -29.5000   8.2500  12.0000 Du        
   2646 ****       -29.5000   8.2500  12.2500 Du        
   2647 ****       -29.5000   8.2500  12.5000 Du        
   2648 ****       -29.5000   8.2500  12.7500 Du        
   2649 ****       -29.5000   8.2500  13.0000 Du        
   2650 ****       -29.5000   8.5000  11.5000 Du        
   2651 ****       -29.5000   8.5000  11.7500 Du        
   2652 ****       -29.5000   8.5000  12.0000 Du        
   2653 ****       -29.5000   8.5000  12.2500 Du        
   2654 ****       -29.5000   8.5000  12.5000 Du        
   2655 ****       -29.5000   8.5000  12.7500 Du        
   2656 ****       -29.5000   8.7500  11.2500 Du        
   2657 ****       -29.5000   8.7500  11.5000 Du        
   2658 ****       -29.5000   8.7500  11.7500 Du        
   2659 ****       -29.5000   8.7500  12.0000 Du        
   2660 ****       -29.5000   8.7500  12.2500 Du        
   2661 ****       -29.5000   8.7500  12.5000 Du        
   2662 ****       -29.5000   9.0000  11.2500 Du        
   2663 ****       -29.5000   9.0000  11.5000 Du        
   2664 ****       -29.5000   9.0000  11.7500 Du        
   2665 ****       -29.5000   9.0000  12.0000 Du        
   2666 ****       -29.5000   9.2500  11.2500 Du        
   2667 ****       -29.5000   9.2500  11.5000 Du        
   2668 ****       -29.5000  14.7500  17.7500 Du        
   2669 ****       -29.5000  14.7500  18.0000 Du        
   2670 ****       -29.2500  -1.7500   3.2500 Du        
   2671 ****       -29.2500  -1.7500   3.5000 Du        
   2672 ****       -29.2500  -1.7500   3.7500 Du        
   2673 ****       -29.2500  -1.5000   3.5000 Du        
   2674 ****       -29.2500  -1.5000   3.7500 Du        
   2675 ****       -29.2500  -1.2500   3.5000 Du        
   2676 ****       -29.2500  -1.2500   3.7500 Du        
   2677 ****       -29.2500  -1.2500   4.0000 Du        
   2678 ****       -29.2500  -1.0000   3.5000 Du        
   2679 ****       -29.2500  -1.0000   3.7500 Du        
   2680 ****       -29.2500  -1.0000   4.0000 Du        
   2681 ****       -29.2500  -0.7500   3.7500 Du        
   2682 ****       -29.2500  -0.7500   4.0000 Du        
   2683 ****       -29.2500   7.7500  12.2500 Du        
   2684 ****       -29.2500   8.0000  12.0000 Du        
   2685 ****       -29.2500   8.0000  12.2500 Du        
   2686 ****       -29.2500   8.0000  12.5000 Du        
   2687 ****       -29.2500   8.2500  11.7500 Du        
   2688 ****       -29.2500   8.2500  12.0000 Du        
   2689 ****       -29.2500   8.2500  12.2500 Du        
   2690 ****       -29.2500   8.2500  12.5000 Du        
   2691 ****       -29.2500   8.2500  12.7500 Du        
   2692 ****       -29.2500   8.5000  11.5000 Du        
   2693 ****       -29.2500   8.5000  11.7500 Du        
   2694 ****       -29.2500   8.5000  12.0000 Du        
   2695 ****       -29.2500   8.5000  12.2500 Du        
   2696 ****       -29.2500   8.5000  12.5000 Du        
   2697 ****       -29.2500   8.7500  11.5000 Du        
   2698 ****       -29.2500   8.7500  11.7500 Du        
   2699 ****       -29.2500   8.7500  12.0000 Du        
   2700 ****       -29.2500   8.7500  12.2500 Du        
   2701 ****       -29.2500   9.0000  11.2500 Du        
   2702 ****       -29.2500   9.0000  11.5000 Du        
   2703 ****       -29.2500   9.0000  11.7500 Du        
   2704 ****       -29.2500   9.0000  12.0000 Du        
   2705 ****       -29.2500   9.2500  11.0000 Du        
   2706 ****       -29.2500   9.2500  11.2500 Du        
   2707 ****       -29.2500   9.2500  11.5000 Du        
   2708 ****       -29.2500   9.5000  11.0000 Du        
   2709 ****       -29.0000  -2.2500   3.0000 Du        
   2710 ****       -29.0000  -2.2500   3.2500 Du        
   2711 ****       -29.0000  -2.0000   3.0000 Du        
   2712 ****       -29.0000  -2.0000   3.2500 Du        
   2713 ****       -29.0000  -2.0000   3.5000 Du        
   2714 ****       -29.0000  -1.7500   3.2500 Du        
   2715 ****       -29.0000  -1.7500   3.5000 Du        
   2716 ****       -29.0000  -1.7500   3.7500 Du        
   2717 ****       -29.0000  -1.5000   3.5000 Du        
   2718 ****       -29.0000  -1.5000   3.7500 Du        
   2719 ****       -29.0000  -1.5000   4.0000 Du        
   2720 ****       -29.0000  -1.2500   3.5000 Du        
   2721 ****       -29.0000  -1.2500   3.7500 Du        
   2722 ****       -29.0000  -1.2500   4.0000 Du        
   2723 ****       -29.0000  -1.0000   3.5000 Du        
   2724 ****       -29.0000  -1.0000   3.7500 Du        
   2725 ****       -29.0000  -1.0000   4.0000 Du        
   2726 ****       -29.0000  -0.7500   4.0000 Du        
   2727 ****       -29.0000   8.2500  12.0000 Du        
   2728 ****       -29.0000   8.5000  11.7500 Du        
   2729 ****       -29.0000   8.5000  12.0000 Du        
   2730 ****       -29.0000   8.7500  11.5000 Du        
   2731 ****       -29.0000   8.7500  11.7500 Du        
   2732 ****       -29.0000   8.7500  12.0000 Du        
   2733 ****       -29.0000   9.0000  11.2500 Du        
   2734 ****       -29.0000   9.0000  11.5000 Du        
   2735 ****       -29.0000   9.0000  11.7500 Du        
   2736 ****       -29.0000   9.2500  11.2500 Du        
   2737 ****       -29.0000   9.2500  11.5000 Du        
   2738 ****       -29.0000   9.5000  11.0000 Du        
   2739 ****       -28.7500  -3.0000   2.5000 Du        
   2740 ****       -28.7500  -3.0000   2.7500 Du        
   2741 ****       -28.7500  -2.7500   2.5000 Du        
   2742 ****       -28.7500  -2.7500   2.7500 Du        
   2743 ****       -28.7500  -2.7500   3.0000 Du        
   2744 ****       -28.7500  -2.7500   3.2500 Du        
   2745 ****       -28.7500  -2.5000   3.0000 Du        
   2746 ****       -28.7500  -2.5000   3.2500 Du        
   2747 ****       -28.7500  -2.2500   3.0000 Du        
   2748 ****       -28.7500  -2.2500   3.2500 Du        
   2749 ****       -28.7500  -2.2500   3.5000 Du        
   2750 ****       -28.7500  -2.0000   3.0000 Du        
   2751 ****       -28.7500  -2.0000   3.2500 Du        
   2752 ****       -28.7500  -2.0000   3.5000 Du        
   2753 ****       -28.7500  -2.0000   3.7500 Du        
   2754 ****       -28.7500  -1.7500   3.2500 Du        
   2755 ****       -28.7500  -1.7500   3.5000 Du        
   2756 ****       -28.7500  -1.7500   3.7500 Du        
   2757 ****       -28.7500  -1.7500   4.0000 Du        
   2758 ****       -28.7500  -1.5000   3.5000 Du        
   2759 ****       -28.7500  -1.5000   3.7500 Du        
   2760 ****       -28.7500  -1.5000   4.0000 Du        
   2761 ****       -28.7500  -1.2500   3.5000 Du        
   2762 ****       -28.7500  -1.2500   3.7500 Du        
   2763 ****       -28.7500  -1.2500   4.0000 Du        
   2764 ****       -28.7500  -1.0000   3.5000 Du        
   2765 ****       -28.7500  -1.0000   3.7500 Du        
   2766 ****       -28.7500  -1.0000   4.0000 Du        
   2767 ****       -28.7500  -0.7500   3.7500 Du        
   2768 ****       -28.7500  -0.7500   4.0000 Du        
   2769 ****       -28.5000  -3.0000   2.5000 Du        
   2770 ****       -28.5000  -3.0000   2.7500 Du        
   2771 ****       -28.5000  -3.0000   3.0000 Du        
   2772 ****       -28.5000  -2.7500   2.5000 Du        
   2773 ****       -28.5000  -2.7500   2.7500 Du        
   2774 ****       -28.5000  -2.7500   3.0000 Du        
   2775 ****       -28.5000  -2.7500   3.2500 Du        
   2776 ****       -28.5000  -2.5000   2.5000 Du        
   2777 ****       -28.5000  -2.5000   2.7500 Du        
   2778 ****       -28.5000  -2.5000   3.0000 Du        
   2779 ****       -28.5000  -2.5000   3.2500 Du        
   2780 ****       -28.5000  -2.5000   3.5000 Du        
   2781 ****       -28.5000  -2.2500   2.7500 Du        
   2782 ****       -28.5000  -2.2500   3.0000 Du        
   2783 ****       -28.5000  -2.2500   3.2500 Du        
   2784 ****       -28.5000  -2.2500   3.5000 Du        
   2785 ****       -28.5000  -2.2500   3.7500 Du        
   2786 ****       -28.5000  -2.0000   3.0000 Du        
   2787 ****       -28.5000  -2.0000   3.2500 Du        
   2788 ****       -28.5000  -2.0000   3.5000 Du        
   2789 ****       -28.5000  -2.0000   3.7500 Du        
   2790 ****       -28.5000  -1.7500   3.2500 Du        
   2791 ****       -28.5000  -1.7500   3.5000 Du        
   2792 ****       -28.5000  -1.7500   3.7500 Du        
   2793 ****       -28.5000  -1.7500   4.0000 Du        
   2794 ****       -28.5000  -1.5000   3.5000 Du        
   2795 ****       -28.5000  -1.5000   3.7500 Du        
   2796 ****       -28.5000  -1.5000   4.0000 Du        
   2797 ****       -28.5000  -1.2500   3.5000 Du        
   2798 ****       -28.5000  -1.2500   3.7500 Du        
   2799 ****       -28.5000  -1.2500   4.0000 Du        
   2800 ****       -28.5000  -1.0000   3.5000 Du        
   2801 ****       -28.5000  -1.0000   3.7500 Du        
   2802 ****       -28.5000  -1.0000   4.0000 Du        
   2803 ****       -28.5000  -1.0000   4.2500 Du        
   2804 ****       -28.5000  -0.7500   3.7500 Du        
   2805 ****       -28.5000  -0.7500   4.0000 Du        
   2806 ****       -28.5000  -0.7500   4.2500 Du        
   2807 ****       -28.2500  -3.0000   2.5000 Du        
   2808 ****       -28.2500  -3.0000   2.7500 Du        
   2809 ****       -28.2500  -3.0000   3.0000 Du        
   2810 ****       -28.2500  -2.7500   2.5000 Du        
   2811 ****       -28.2500  -2.7500   2.7500 Du        
   2812 ****       -28.2500  -2.7500   3.0000 Du        
   2813 ****       -28.2500  -2.7500   3.2500 Du        
   2814 ****       -28.2500  -2.7500   3.5000 Du        
   2815 ****       -28.2500  -2.5000   2.5000 Du        
   2816 ****       -28.2500  -2.5000   2.7500 Du        
   2817 ****       -28.2500  -2.5000   3.0000 Du        
   2818 ****       -28.2500  -2.5000   3.2500 Du        
   2819 ****       -28.2500  -2.5000   3.5000 Du        
   2820 ****       -28.2500  -2.2500   2.7500 Du        
   2821 ****       -28.2500  -2.2500   3.0000 Du        
   2822 ****       -28.2500  -2.2500   3.2500 Du        
   2823 ****       -28.2500  -2.2500   3.5000 Du        
   2824 ****       -28.2500  -2.2500   3.7500 Du        
   2825 ****       -28.2500  -2.0000   2.7500 Du        
   2826 ****       -28.2500  -2.0000   3.0000 Du        
   2827 ****       -28.2500  -2.0000   3.2500 Du        
   2828 ****       -28.2500  -2.0000   3.5000 Du        
   2829 ****       -28.2500  -2.0000   3.7500 Du        
   2830 ****       -28.2500  -2.0000   4.0000 Du        
   2831 ****       -28.2500  -1.7500   3.2500 Du        
   2832 ****       -28.2500  -1.7500   3.5000 Du        
   2833 ****       -28.2500  -1.7500   3.7500 Du        
   2834 ****       -28.2500  -1.7500   4.0000 Du        
   2835 ****       -28.2500  -1.5000   3.5000 Du        
   2836 ****       -28.2500  -1.5000   3.7500 Du        
   2837 ****       -28.2500  -1.5000   4.0000 Du        
   2838 ****       -28.2500  -1.2500   3.5000 Du        
   2839 ****       -28.2500  -1.2500   3.7500 Du        
   2840 ****       -28.2500  -1.2500   4.0000 Du        
   2841 ****       -28.2500  -1.2500   4.2500 Du        
   2842 ****       -28.2500  -1.0000   3.5000 Du        
   2843 ****       -28.2500  -1.0000   3.7500 Du        
   2844 ****       -28.2500  -1.0000   4.0000 Du        
   2845 ****       -28.2500  -1.0000   4.2500 Du        
   2846 ****       -28.2500  -0.7500   3.7500 Du        
   2847 ****       -28.2500  -0.7500   4.0000 Du        
   2848 ****       -28.2500  -0.7500   4.2500 Du        
   2849 ****       -28.0000  -2.7500   2.5000 Du        
   2850 ****       -28.0000  -2.7500   2.7500 Du        
   2851 ****       -28.0000  -2.7500   3.0000 Du        
   2852 ****       -28.0000  -2.7500   3.2500 Du        
   2853 ****       -28.0000  -2.7500   3.5000 Du        
   2854 ****       -28.0000  -2.5000   2.5000 Du        
   2855 ****       -28.0000  -2.5000   2.7500 Du        
   2856 ****       -28.0000  -2.5000   3.0000 Du        
   2857 ****       -28.0000  -2.5000   3.2500 Du        
   2858 ****       -28.0000  -2.5000   3.5000 Du        
   2859 ****       -28.0000  -2.2500   2.5000 Du        
   2860 ****       -28.0000  -2.2500   2.7500 Du        
   2861 ****       -28.0000  -2.2500   3.0000 Du        
   2862 ****       -28.0000  -2.2500   3.2500 Du        
   2863 ****       -28.0000  -2.2500   3.5000 Du        
   2864 ****       -28.0000  -2.2500   3.7500 Du        
   2865 ****       -28.0000  -2.0000   2.7500 Du        
   2866 ****       -28.0000  -2.0000   3.0000 Du        
   2867 ****       -28.0000  -2.0000   3.2500 Du        
   2868 ****       -28.0000  -2.0000   3.5000 Du        
   2869 ****       -28.0000  -2.0000   3.7500 Du        
   2870 ****       -28.0000  -2.0000   4.0000 Du        
   2871 ****       -28.0000  -1.7500   3.2500 Du        
   2872 ****       -28.0000  -1.7500   3.5000 Du        
   2873 ****       -28.0000  -1.7500   3.7500 Du        
   2874 ****       -28.0000  -1.7500   4.0000 Du        
   2875 ****       -28.0000  -1.5000   3.5000 Du        
   2876 ****       -28.0000  -1.5000   3.7500 Du        
   2877 ****       -28.0000  -1.5000   4.0000 Du        
   2878 ****       -28.0000  -1.2500   3.5000 Du        
   2879 ****       -28.0000  -1.2500   3.7500 Du        
   2880 ****       -28.0000  -1.2500   4.0000 Du        
   2881 ****       -28.0000  -1.2500   4.2500 Du        
   2882 ****       -28.0000  -1.0000   3.7500 Du        
   2883 ****       -28.0000  -1.0000   4.0000 Du        
   2884 ****       -28.0000  -1.0000   4.2500 Du        
   2885 ****       -28.0000  -0.7500   3.7500 Du        
   2886 ****       -28.0000  -0.7500   4.0000 Du        
   2887 ****       -28.0000  -0.7500   4.2500 Du        
   2888 ****       -27.7500  -2.5000   3.0000 Du        
   2889 ****       -27.7500  -2.5000   3.2500 Du        
   2890 ****       -27.7500  -2.2500   2.7500 Du        
   2891 ****       -27.7500  -2.2500   3.0000 Du        
   2892 ****       -27.7500  -2.2500   3.2500 Du        
   2893 ****       -27.7500  -2.2500   3.5000 Du        
   2894 ****       -27.7500  -2.2500   3.7500 Du        
   2895 ****       -27.7500  -2.0000   2.7500 Du        
   2896 ****       -27.7500  -2.0000   3.0000 Du        
   2897 ****       -27.7500  -2.0000   3.2500 Du        
   2898 ****       -27.7500  -2.0000   3.5000 Du        
   2899 ****       -27.7500  -2.0000   3.7500 Du        
   2900 ****       -27.7500  -1.7500   3.0000 Du        
   2901 ****       -27.7500  -1.7500   3.2500 Du        
   2902 ****       -27.7500  -1.7500   3.5000 Du        
   2903 ****       -27.7500  -1.7500   3.7500 Du        
   2904 ****       -27.7500  -1.7500   4.0000 Du        
   2905 ****       -27.7500  -1.5000   3.5000 Du        
   2906 ****       -27.7500  -1.5000   3.7500 Du        
   2907 ****       -27.7500  -1.5000   4.0000 Du        
   2908 ****       -27.7500  -1.2500   3.5000 Du        
   2909 ****       -27.7500  -1.2500   3.7500 Du        
   2910 ****       -27.7500  -1.2500   4.0000 Du        
   2911 ****       -27.7500  -1.0000   3.7500 Du        
   2912 ****       -27.7500  -1.0000   4.0000 Du        
   2913 ****       -27.7500  -1.0000   4.2500 Du        
   2914 ****       -27.7500  -0.7500   3.7500 Du        
   2915 ****       -27.7500  -0.7500   4.0000 Du        
   2916 ****       -27.7500  -0.7500   4.2500 Du        
   2917 ****       -27.5000  -2.2500   3.5000 Du        
   2918 ****       -27.5000  -2.0000   3.0000 Du        
   2919 ****       -27.5000  -2.0000   3.2500 Du        
   2920 ****       -27.5000  -2.0000   3.5000 Du        
   2921 ****       -27.5000  -2.0000   3.7500 Du        
   2922 ****       -27.5000  -1.7500   3.2500 Du        
   2923 ****       -27.5000  -1.7500   3.5000 Du        
   2924 ****       -27.5000  -1.7500   3.7500 Du        
   2925 ****       -27.5000  -1.7500   4.0000 Du        
   2926 ****       -27.5000  -1.5000   3.7500 Du        
   2927 ****       -27.5000  -1.2500   3.5000 Du        
   2928 ****       -27.5000  -1.2500   3.7500 Du        
   2929 ****       -27.5000  -1.2500   4.0000 Du        
   2930 ****       -27.5000  -1.0000   3.7500 Du        
   2931 ****       -27.5000  -1.0000   4.0000 Du        
   2932 ****       -27.5000  11.0000  10.2500 Du        
   2933 ****       -27.5000  11.0000  10.5000 Du        
   2934 ****       -27.5000  11.2500  10.5000 Du        
   2935 ****       -27.2500  -2.0000   3.5000 Du        
   2936 ****       -27.2500  -2.0000   3.7500 Du        
   2937 ****       -27.2500  -1.7500   3.2500 Du        
   2938 ****       -27.2500  -1.7500   3.5000 Du        
   2939 ****       -27.2500  -1.7500   3.7500 Du        
   2940 ****       -27.2500  -1.5000   3.7500 Du        
   2941 ****       -27.2500  -1.2500   3.5000 Du        
   2942 ****       -27.2500  -1.2500   3.7500 Du        
   2943 ****       -27.2500  -1.2500   4.0000 Du        
   2944 ****       -27.2500  -1.0000   3.7500 Du        
   2945 ****       -27.2500  -1.0000   4.0000 Du        
   2946 ****       -27.2500  11.0000  10.2500 Du        
   2947 ****       -27.2500  11.0000  10.5000 Du        
   2948 ****       -27.2500  11.2500  10.2500 Du        
   2949 ****       -27.2500  11.2500  10.5000 Du        
   2950 ****       -27.2500  11.5000  10.5000 Du        
   2951 ****       -27.0000  -1.2500   3.7500 Du        
   2952 ****       -27.0000  -1.2500   4.0000 Du        
   2953 ****       -27.0000  -1.0000   3.7500 Du        
   2954 ****       -27.0000  -1.0000   4.0000 Du        
   2955 ****       -27.0000  11.0000  10.2500 Du        
   2956 ****       -27.0000  11.0000  10.5000 Du        
   2957 ****       -27.0000  11.2500  10.0000 Du        
   2958 ****       -27.0000  11.2500  10.2500 Du        
   2959 ****       -27.0000  11.2500  10.5000 Du        
   2960 ****       -27.0000  11.5000  10.5000 Du        
   2961 ****       -27.0000  11.7500  10.5000 Du        
   2962 ****       -26.7500  -1.2500   3.7500 Du        
   2963 ****       -26.7500  -1.2500   4.0000 Du        
   2964 ****       -26.7500  -1.0000   3.7500 Du        
   2965 ****       -26.7500  -1.0000   4.0000 Du        
   2966 ****       -26.7500  -0.7500   4.0000 Du        
   2967 ****       -26.7500  11.0000  10.2500 Du        
   2968 ****       -26.7500  11.0000  10.5000 Du        
   2969 ****       -26.7500  11.2500  10.2500 Du        
   2970 ****       -26.7500  11.2500  10.5000 Du        
   2971 ****       -26.7500  11.5000  10.5000 Du        
   2972 ****       -26.7500  11.7500  10.5000 Du        
   2973 ****       -26.5000  11.2500  10.2500 Du        
   2974 ****       -26.5000  11.2500  10.5000 Du        
   2975 ****       -26.5000  11.5000  10.5000 Du        
   2976 ****       -26.2500  11.5000  10.0000 Du        
   2977 ****       -26.2500  11.7500  10.2500 Du        
   2978 ****       -26.0000  11.7500  10.0000 Du        
   2979 ****       -24.7500   4.2500   7.5000 Du        
   2980 ****       -24.5000  -1.0000   4.5000 Du        
   2981 ****       -24.5000   4.2500   7.5000 Du        
   2982 ****       -24.5000   4.2500   7.7500 Du        
   2983 ****       -24.5000   4.2500   8.0000 Du        
   2984 ****       -24.5000   4.2500   8.2500 Du        
   2985 ****       -24.5000   4.5000   7.7500 Du        
   2986 ****       -24.5000   4.5000   8.0000 Du        
   2987 ****       -24.2500  -1.2500   4.5000 Du        
   2988 ****       -24.2500  -1.2500   4.7500 Du        
   2989 ****       -24.2500  -1.0000   4.5000 Du        
   2990 ****       -24.2500  -1.0000   4.7500 Du        
   2991 ****       -24.2500  -0.7500   4.7500 Du        
   2992 ****       -24.2500   4.0000   7.5000 Du        
   2993 ****       -24.2500   4.0000   7.7500 Du        
   2994 ****       -24.2500   4.0000   8.0000 Du        
   2995 ****       -24.2500   4.0000   8.2500 Du        
   2996 ****       -24.2500   4.0000   8.5000 Du        
   2997 ****       -24.2500   4.2500   7.5000 Du        
   2998 ****       -24.2500   4.2500   7.7500 Du        
   2999 ****       -24.2500   4.2500   8.0000 Du        
   3000 ****       -24.2500   4.2500   8.2500 Du        
   3001 ****       -24.2500   4.2500   8.5000 Du        
   3002 ****       -24.2500   4.2500   8.7500 Du        
   3003 ****       -24.2500   4.5000   7.7500 Du        
   3004 ****       -24.2500   4.5000   8.0000 Du        
   3005 ****       -24.2500   4.5000   8.2500 Du        
   3006 ****       -24.2500   4.5000   8.5000 Du        
   3007 ****       -24.2500   4.7500   7.7500 Du        
   3008 ****       -24.2500   4.7500   8.0000 Du        
   3009 ****       -24.0000  -1.7500   5.0000 Du        
   3010 ****       -24.0000  -1.5000   4.7500 Du        
   3011 ****       -24.0000  -1.5000   5.0000 Du        
   3012 ****       -24.0000  -1.2500   4.5000 Du        
   3013 ****       -24.0000  -1.2500   4.7500 Du        
   3014 ****       -24.0000  -1.2500   5.0000 Du        
   3015 ****       -24.0000  -1.0000   4.5000 Du        
   3016 ****       -24.0000  -1.0000   4.7500 Du        
   3017 ****       -24.0000  -1.0000   5.0000 Du        
   3018 ****       -24.0000  -0.7500   4.5000 Du        
   3019 ****       -24.0000  -0.7500   4.7500 Du        
   3020 ****       -24.0000   3.7500   7.7500 Du        
   3021 ****       -24.0000   3.7500   8.0000 Du        
   3022 ****       -24.0000   3.7500   8.2500 Du        
   3023 ****       -24.0000   3.7500   8.5000 Du        
   3024 ****       -24.0000   3.7500   8.7500 Du        
   3025 ****       -24.0000   4.0000   7.7500 Du        
   3026 ****       -24.0000   4.0000   8.0000 Du        
   3027 ****       -24.0000   4.0000   8.2500 Du        
   3028 ****       -24.0000   4.0000   8.5000 Du        
   3029 ****       -24.0000   4.0000   8.7500 Du        
   3030 ****       -24.0000   4.0000   9.0000 Du        
   3031 ****       -24.0000   4.2500   7.7500 Du        
   3032 ****       -24.0000   4.2500   8.0000 Du        
   3033 ****       -24.0000   4.2500   8.2500 Du        
   3034 ****       -24.0000   4.2500   8.5000 Du        
   3035 ****       -24.0000   4.2500   8.7500 Du        
   3036 ****       -24.0000   4.2500   9.0000 Du        
   3037 ****       -24.0000   4.5000   8.0000 Du        
   3038 ****       -24.0000   4.5000   8.2500 Du        
   3039 ****       -24.0000   4.5000   8.5000 Du        
   3040 ****       -24.0000   4.5000   8.7500 Du        
   3041 ****       -24.0000   4.7500   8.0000 Du        
   3042 ****       -24.0000   4.7500   8.2500 Du        
   3043 ****       -24.0000   4.7500   8.5000 Du        
   3044 ****       -23.7500  -1.7500   4.7500 Du        
   3045 ****       -23.7500  -1.7500   5.0000 Du        
   3046 ****       -23.7500  -1.7500   5.2500 Du        
   3047 ****       -23.7500  -1.5000   4.7500 Du        
   3048 ****       -23.7500  -1.5000   5.0000 Du        
   3049 ****       -23.7500  -1.2500   4.5000 Du        
   3050 ****       -23.7500  -1.2500   4.7500 Du        
   3051 ****       -23.7500  -1.2500   5.0000 Du        
   3052 ****       -23.7500  -1.0000   4.5000 Du        
   3053 ****       -23.7500  -1.0000   4.7500 Du        
   3054 ****       -23.7500  -1.0000   5.0000 Du        
   3055 ****       -23.7500  -0.7500   4.7500 Du        
   3056 ****       -23.7500  -0.7500   5.0000 Du        
   3057 ****       -23.7500   3.0000   7.7500 Du        
   3058 ****       -23.7500   3.0000   8.0000 Du        
   3059 ****       -23.7500   3.0000   8.2500 Du        
   3060 ****       -23.7500   3.0000   8.5000 Du        
   3061 ****       -23.7500   3.2500   7.7500 Du        
   3062 ****       -23.7500   3.2500   8.0000 Du        
   3063 ****       -23.7500   3.2500   8.2500 Du        
   3064 ****       -23.7500   3.2500   8.5000 Du        
   3065 ****       -23.7500   3.2500   8.7500 Du        
   3066 ****       -23.7500   3.5000   8.0000 Du        
   3067 ****       -23.7500   3.5000   8.2500 Du        
   3068 ****       -23.7500   3.5000   8.5000 Du        
   3069 ****       -23.7500   3.5000   8.7500 Du        
   3070 ****       -23.7500   3.7500   8.0000 Du        
   3071 ****       -23.7500   3.7500   8.2500 Du        
   3072 ****       -23.7500   3.7500   8.5000 Du        
   3073 ****       -23.7500   3.7500   8.7500 Du        
   3074 ****       -23.7500   3.7500   9.0000 Du        
   3075 ****       -23.7500   4.0000   7.7500 Du        
   3076 ****       -23.7500   4.0000   8.0000 Du        
   3077 ****       -23.7500   4.0000   8.2500 Du        
   3078 ****       -23.7500   4.0000   8.5000 Du        
   3079 ****       -23.7500   4.0000   8.7500 Du        
   3080 ****       -23.7500   4.0000   9.0000 Du        
   3081 ****       -23.7500   4.0000   9.2500 Du        
   3082 ****       -23.7500   4.2500   8.0000 Du        
   3083 ****       -23.7500   4.2500   8.2500 Du        
   3084 ****       -23.7500   4.2500   8.5000 Du        
   3085 ****       -23.7500   4.2500   8.7500 Du        
   3086 ****       -23.7500   4.2500   9.0000 Du        
   3087 ****       -23.7500   4.2500   9.2500 Du        
   3088 ****       -23.7500   4.5000   8.0000 Du        
   3089 ****       -23.7500   4.5000   8.2500 Du        
   3090 ****       -23.7500   4.5000   8.5000 Du        
   3091 ****       -23.7500   4.5000   8.7500 Du        
   3092 ****       -23.7500   4.5000   9.0000 Du        
   3093 ****       -23.7500   4.7500   8.2500 Du        
   3094 ****       -23.7500   4.7500   8.5000 Du        
   3095 ****       -23.7500   4.7500   8.7500 Du        
   3096 ****       -23.5000  -2.0000   5.0000 Du        
   3097 ****       -23.5000  -1.7500   4.7500 Du        
   3098 ****       -23.5000  -1.7500   5.0000 Du        
   3099 ****       -23.5000  -1.7500   5.2500 Du        
   3100 ****       -23.5000  -1.5000   4.5000 Du        
   3101 ****       -23.5000  -1.5000   4.7500 Du        
   3102 ****       -23.5000  -1.5000   5.0000 Du        
   3103 ****       -23.5000  -1.2500   4.5000 Du        
   3104 ****       -23.5000  -1.2500   4.7500 Du        
   3105 ****       -23.5000  -1.2500   5.0000 Du        
   3106 ****       -23.5000  -1.0000   4.5000 Du        
   3107 ****       -23.5000  -1.0000   4.7500 Du        
   3108 ****       -23.5000  -1.0000   5.0000 Du        
   3109 ****       -23.5000  -0.7500   4.5000 Du        
   3110 ****       -23.5000  -0.7500   4.7500 Du        
   3111 ****       -23.5000  -0.7500   5.0000 Du        
   3112 ****       -23.5000   2.2500   8.5000 Du        
   3113 ****       -23.5000   2.5000   7.7500 Du        
   3114 ****       -23.5000   2.5000   8.0000 Du        
   3115 ****       -23.5000   2.5000   8.2500 Du        
   3116 ****       -23.5000   2.5000   8.5000 Du        
   3117 ****       -23.5000   2.7500   7.7500 Du        
   3118 ****       -23.5000   2.7500   8.0000 Du        
   3119 ****       -23.5000   2.7500   8.2500 Du        
   3120 ****       -23.5000   2.7500   8.5000 Du        
   3121 ****       -23.5000   2.7500   8.7500 Du        
   3122 ****       -23.5000   3.0000   7.7500 Du        
   3123 ****       -23.5000   3.0000   8.0000 Du        
   3124 ****       -23.5000   3.0000   8.2500 Du        
   3125 ****       -23.5000   3.0000   8.5000 Du        
   3126 ****       -23.5000   3.0000   8.7500 Du        
   3127 ****       -23.5000   3.2500   7.7500 Du        
   3128 ****       -23.5000   3.2500   8.0000 Du        
   3129 ****       -23.5000   3.2500   8.2500 Du        
   3130 ****       -23.5000   3.2500   8.5000 Du        
   3131 ****       -23.5000   3.2500   8.7500 Du        
   3132 ****       -23.5000   3.2500   9.0000 Du        
   3133 ****       -23.5000   3.5000   8.2500 Du        
   3134 ****       -23.5000   3.5000   8.5000 Du        
   3135 ****       -23.5000   3.5000   8.7500 Du        
   3136 ****       -23.5000   3.5000   9.0000 Du        
   3137 ****       -23.5000   3.7500   8.2500 Du        
   3138 ****       -23.5000   3.7500   8.5000 Du        
   3139 ****       -23.5000   3.7500   8.7500 Du        
   3140 ****       -23.5000   3.7500   9.0000 Du        
   3141 ****       -23.5000   4.0000   8.5000 Du        
   3142 ****       -23.5000   4.0000   8.7500 Du        
   3143 ****       -23.5000   4.0000   9.0000 Du        
   3144 ****       -23.5000   4.0000   9.2500 Du        
   3145 ****       -23.5000   4.2500   8.5000 Du        
   3146 ****       -23.5000   4.2500   8.7500 Du        
   3147 ****       -23.5000   4.2500   9.0000 Du        
   3148 ****       -23.5000   4.2500   9.2500 Du        
   3149 ****       -23.5000   4.2500   9.5000 Du        
   3150 ****       -23.5000   4.5000   9.0000 Du        
   3151 ****       -23.2500  -1.7500   4.5000 Du        
   3152 ****       -23.2500  -1.7500   4.7500 Du        
   3153 ****       -23.2500  -1.7500   5.0000 Du        
   3154 ****       -23.2500  -1.5000   4.5000 Du        
   3155 ****       -23.2500  -1.5000   4.7500 Du        
   3156 ****       -23.2500  -1.5000   5.0000 Du        
   3157 ****       -23.2500  -1.2500   4.5000 Du        
   3158 ****       -23.2500  -1.2500   4.7500 Du        
   3159 ****       -23.2500  -1.2500   5.0000 Du        
   3160 ****       -23.2500  -1.0000   4.5000 Du        
   3161 ****       -23.2500  -1.0000   4.7500 Du        
   3162 ****       -23.2500  -1.0000   5.0000 Du        
   3163 ****       -23.2500  -0.7500   4.5000 Du        
   3164 ****       -23.2500  -0.7500   4.7500 Du        
   3165 ****       -23.2500  -0.7500   5.0000 Du        
   3166 ****       -23.2500   1.2500   7.5000 Du        
   3167 ****       -23.2500   1.2500   7.7500 Du        
   3168 ****       -23.2500   1.2500   8.0000 Du        
   3169 ****       -23.2500   1.5000   7.5000 Du        
   3170 ****       -23.2500   1.5000   7.7500 Du        
   3171 ****       -23.2500   1.5000   8.0000 Du        
   3172 ****       -23.2500   1.7500   7.5000 Du        
   3173 ****       -23.2500   1.7500   7.7500 Du        
   3174 ****       -23.2500   1.7500   8.0000 Du        
   3175 ****       -23.2500   1.7500   8.2500 Du        
   3176 ****       -23.2500   1.7500   8.5000 Du        
   3177 ****       -23.2500   2.0000   7.7500 Du        
   3178 ****       -23.2500   2.0000   8.0000 Du        
   3179 ****       -23.2500   2.0000   8.2500 Du        
   3180 ****       -23.2500   2.0000   8.5000 Du        
   3181 ****       -23.2500   2.0000   8.7500 Du        
   3182 ****       -23.2500   2.2500   7.7500 Du        
   3183 ****       -23.2500   2.2500   8.0000 Du        
   3184 ****       -23.2500   2.2500   8.2500 Du        
   3185 ****       -23.2500   2.2500   8.5000 Du        
   3186 ****       -23.2500   2.2500   8.7500 Du        
   3187 ****       -23.2500   2.5000   7.5000 Du        
   3188 ****       -23.2500   2.5000   7.7500 Du        
   3189 ****       -23.2500   2.5000   8.0000 Du        
   3190 ****       -23.2500   2.5000   8.2500 Du        
   3191 ****       -23.2500   2.5000   8.5000 Du        
   3192 ****       -23.2500   2.5000   8.7500 Du        
   3193 ****       -23.2500   2.5000   9.0000 Du        
   3194 ****       -23.2500   2.7500   7.5000 Du        
   3195 ****       -23.2500   2.7500   7.7500 Du        
   3196 ****       -23.2500   2.7500   8.0000 Du        
   3197 ****       -23.2500   2.7500   8.2500 Du        
   3198 ****       -23.2500   2.7500   8.5000 Du        
   3199 ****       -23.2500   2.7500   8.7500 Du        
   3200 ****       -23.2500   2.7500   9.0000 Du        
   3201 ****       -23.2500   3.0000   7.7500 Du        
   3202 ****       -23.2500   3.0000   8.0000 Du        
   3203 ****       -23.2500   3.0000   8.2500 Du        
   3204 ****       -23.2500   3.0000   8.5000 Du        
   3205 ****       -23.2500   3.0000   8.7500 Du        
   3206 ****       -23.2500   3.0000   9.0000 Du        
   3207 ****       -23.2500   3.2500   7.7500 Du        
   3208 ****       -23.2500   3.2500   8.0000 Du        
   3209 ****       -23.2500   3.2500   8.2500 Du        
   3210 ****       -23.2500   3.2500   8.5000 Du        
   3211 ****       -23.2500   3.2500   8.7500 Du        
   3212 ****       -23.2500   3.2500   9.0000 Du        
   3213 ****       -23.2500   3.2500   9.2500 Du        
   3214 ****       -23.2500   3.5000   8.2500 Du        
   3215 ****       -23.2500   3.5000   8.5000 Du        
   3216 ****       -23.2500   3.5000   8.7500 Du        
   3217 ****       -23.2500   3.5000   9.0000 Du        
   3218 ****       -23.2500   3.5000   9.2500 Du        
   3219 ****       -23.2500   3.7500   8.2500 Du        
   3220 ****       -23.2500   3.7500   8.5000 Du        
   3221 ****       -23.2500   3.7500   8.7500 Du        
   3222 ****       -23.2500   3.7500   9.0000 Du        
   3223 ****       -23.2500   3.7500   9.2500 Du        
   3224 ****       -23.2500   3.7500   9.5000 Du        
   3225 ****       -23.2500   4.0000   8.2500 Du        
   3226 ****       -23.2500   4.0000   8.5000 Du        
   3227 ****       -23.2500   4.0000   8.7500 Du        
   3228 ****       -23.2500   4.0000   9.0000 Du        
   3229 ****       -23.2500   4.0000   9.2500 Du        
   3230 ****       -23.2500   4.0000   9.5000 Du        
   3231 ****       -23.2500   4.2500   8.7500 Du        
   3232 ****       -23.2500   4.2500   9.0000 Du        
   3233 ****       -23.2500   4.2500   9.2500 Du        
   3234 ****       -23.2500   4.2500   9.5000 Du        
   3235 ****       -23.2500   4.2500   9.7500 Du        
   3236 ****       -23.2500   4.5000   9.0000 Du        
   3237 ****       -23.2500   4.5000   9.2500 Du        
   3238 ****       -23.2500   4.5000   9.5000 Du        
   3239 ****       -23.2500   4.7500   9.0000 Du        
   3240 ****       -23.0000  -1.7500   4.5000 Du        
   3241 ****       -23.0000  -1.2500   4.5000 Du        
   3242 ****       -23.0000  -1.2500   4.7500 Du        
   3243 ****       -23.0000  -1.0000   4.5000 Du        
   3244 ****       -23.0000  -1.0000   4.7500 Du        
   3245 ****       -23.0000  -0.7500   4.7500 Du        
   3246 ****       -23.0000   1.0000   6.7500 Du        
   3247 ****       -23.0000   1.0000   7.0000 Du        
   3248 ****       -23.0000   1.0000   7.2500 Du        
   3249 ****       -23.0000   1.0000   7.5000 Du        
   3250 ****       -23.0000   1.0000   7.7500 Du        
   3251 ****       -23.0000   1.0000   8.0000 Du        
   3252 ****       -23.0000   1.0000   8.2500 Du        
   3253 ****       -23.0000   1.2500   7.0000 Du        
   3254 ****       -23.0000   1.2500   7.2500 Du        
   3255 ****       -23.0000   1.2500   7.5000 Du        
   3256 ****       -23.0000   1.2500   7.7500 Du        
   3257 ****       -23.0000   1.2500   8.0000 Du        
   3258 ****       -23.0000   1.2500   8.2500 Du        
   3259 ****       -23.0000   1.2500   8.5000 Du        
   3260 ****       -23.0000   1.2500   8.7500 Du        
   3261 ****       -23.0000   1.5000   7.2500 Du        
   3262 ****       -23.0000   1.5000   7.5000 Du        
   3263 ****       -23.0000   1.5000   7.7500 Du        
   3264 ****       -23.0000   1.5000   8.0000 Du        
   3265 ****       -23.0000   1.5000   8.2500 Du        
   3266 ****       -23.0000   1.5000   8.5000 Du        
   3267 ****       -23.0000   1.5000   8.7500 Du        
   3268 ****       -23.0000   1.7500   7.5000 Du        
   3269 ****       -23.0000   1.7500   7.7500 Du        
   3270 ****       -23.0000   1.7500   8.0000 Du        
   3271 ****       -23.0000   1.7500   8.2500 Du        
   3272 ****       -23.0000   1.7500   8.5000 Du        
   3273 ****       -23.0000   1.7500   8.7500 Du        
   3274 ****       -23.0000   1.7500   9.0000 Du        
   3275 ****       -23.0000   2.0000   7.5000 Du        
   3276 ****       -23.0000   2.0000   7.7500 Du        
   3277 ****       -23.0000   2.0000   8.0000 Du        
   3278 ****       -23.0000   2.0000   8.2500 Du        
   3279 ****       -23.0000   2.0000   8.5000 Du        
   3280 ****       -23.0000   2.0000   8.7500 Du        
   3281 ****       -23.0000   2.0000   9.0000 Du        
   3282 ****       -23.0000   2.2500   7.7500 Du        
   3283 ****       -23.0000   2.2500   8.0000 Du        
   3284 ****       -23.0000   2.2500   8.2500 Du        
   3285 ****       -23.0000   2.2500   8.5000 Du        
   3286 ****       -23.0000   2.2500   8.7500 Du        
   3287 ****       -23.0000   2.2500   9.0000 Du        
   3288 ****       -23.0000   2.5000   7.7500 Du        
   3289 ****       -23.0000   2.5000   8.0000 Du        
   3290 ****       -23.0000   2.5000   8.2500 Du        
   3291 ****       -23.0000   2.5000   8.5000 Du        
   3292 ****       -23.0000   2.5000   8.7500 Du        
   3293 ****       -23.0000   2.5000   9.0000 Du        
   3294 ****       -23.0000   2.7500   7.7500 Du        
   3295 ****       -23.0000   2.7500   8.0000 Du        
   3296 ****       -23.0000   2.7500   8.2500 Du        
   3297 ****       -23.0000   2.7500   8.5000 Du        
   3298 ****       -23.0000   2.7500   8.7500 Du        
   3299 ****       -23.0000   2.7500   9.0000 Du        
   3300 ****       -23.0000   2.7500   9.2500 Du        
   3301 ****       -23.0000   3.0000   7.7500 Du        
   3302 ****       -23.0000   3.0000   8.0000 Du        
   3303 ****       -23.0000   3.0000   8.2500 Du        
   3304 ****       -23.0000   3.0000   8.5000 Du        
   3305 ****       -23.0000   3.0000   8.7500 Du        
   3306 ****       -23.0000   3.0000   9.0000 Du        
   3307 ****       -23.0000   3.0000   9.2500 Du        
   3308 ****       -23.0000   3.2500   7.7500 Du        
   3309 ****       -23.0000   3.2500   8.0000 Du        
   3310 ****       -23.0000   3.2500   8.2500 Du        
   3311 ****       -23.0000   3.2500   8.5000 Du        
   3312 ****       -23.0000   3.2500   8.7500 Du        
   3313 ****       -23.0000   3.2500   9.0000 Du        
   3314 ****       -23.0000   3.2500   9.2500 Du        
   3315 ****       -23.0000   3.2500   9.5000 Du        
   3316 ****       -23.0000   3.5000   8.5000 Du        
   3317 ****       -23.0000   3.5000   8.7500 Du        
   3318 ****       -23.0000   3.5000   9.0000 Du        
   3319 ****       -23.0000   3.5000   9.2500 Du        
   3320 ****       -23.0000   3.5000   9.5000 Du        
   3321 ****       -23.0000   3.7500   8.5000 Du        
   3322 ****       -23.0000   3.7500   8.7500 Du        
   3323 ****       -23.0000   3.7500   9.0000 Du        
   3324 ****       -23.0000   3.7500   9.2500 Du        
   3325 ****       -23.0000   3.7500   9.5000 Du        
   3326 ****       -23.0000   3.7500   9.7500 Du        
   3327 ****       -23.0000   4.0000   8.5000 Du        
   3328 ****       -23.0000   4.0000   8.7500 Du        
   3329 ****       -23.0000   4.0000   9.0000 Du        
   3330 ****       -23.0000   4.0000   9.2500 Du        
   3331 ****       -23.0000   4.0000   9.5000 Du        
   3332 ****       -23.0000   4.0000   9.7500 Du        
   3333 ****       -23.0000   4.0000  10.0000 Du        
   3334 ****       -23.0000   4.2500   8.7500 Du        
   3335 ****       -23.0000   4.2500   9.0000 Du        
   3336 ****       -23.0000   4.2500   9.2500 Du        
   3337 ****       -23.0000   4.2500   9.5000 Du        
   3338 ****       -23.0000   4.2500   9.7500 Du        
   3339 ****       -23.0000   4.2500  10.0000 Du        
   3340 ****       -23.0000   4.5000   9.5000 Du        
   3341 ****       -23.0000   4.5000   9.7500 Du        
   3342 ****       -23.0000   4.7500   9.5000 Du        
   3343 ****       -22.7500   1.0000   6.7500 Du        
   3344 ****       -22.7500   1.0000   7.0000 Du        
   3345 ****       -22.7500   1.0000   7.2500 Du        
   3346 ****       -22.7500   1.0000   7.5000 Du        
   3347 ****       -22.7500   1.0000   7.7500 Du        
   3348 ****       -22.7500   1.0000   8.0000 Du        
   3349 ****       -22.7500   1.0000   8.2500 Du        
   3350 ****       -22.7500   1.2500   6.7500 Du        
   3351 ****       -22.7500   1.2500   7.0000 Du        
   3352 ****       -22.7500   1.2500   7.2500 Du        
   3353 ****       -22.7500   1.2500   7.5000 Du        
   3354 ****       -22.7500   1.2500   7.7500 Du        
   3355 ****       -22.7500   1.2500   8.0000 Du        
   3356 ****       -22.7500   1.2500   8.2500 Du        
   3357 ****       -22.7500   1.2500   8.5000 Du        
   3358 ****       -22.7500   1.2500   8.7500 Du        
   3359 ****       -22.7500   1.5000   7.2500 Du        
   3360 ****       -22.7500   1.5000   7.5000 Du        
   3361 ****       -22.7500   1.5000   7.7500 Du        
   3362 ****       -22.7500   1.5000   8.0000 Du        
   3363 ****       -22.7500   1.5000   8.2500 Du        
   3364 ****       -22.7500   1.5000   8.5000 Du        
   3365 ****       -22.7500   1.5000   8.7500 Du        
   3366 ****       -22.7500   1.5000   9.0000 Du        
   3367 ****       -22.7500   1.7500   7.5000 Du        
   3368 ****       -22.7500   1.7500   7.7500 Du        
   3369 ****       -22.7500   1.7500   8.0000 Du        
   3370 ****       -22.7500   1.7500   8.2500 Du        
   3371 ****       -22.7500   1.7500   8.5000 Du        
   3372 ****       -22.7500   1.7500   8.7500 Du        
   3373 ****       -22.7500   1.7500   9.0000 Du        
   3374 ****       -22.7500   2.0000   7.7500 Du        
   3375 ****       -22.7500   2.0000   8.0000 Du        
   3376 ****       -22.7500   2.0000   8.2500 Du        
   3377 ****       -22.7500   2.0000   8.5000 Du        
   3378 ****       -22.7500   2.0000   8.7500 Du        
   3379 ****       -22.7500   2.0000   9.0000 Du        
   3380 ****       -22.7500   2.0000   9.2500 Du        
   3381 ****       -22.7500   2.2500   8.0000 Du        
   3382 ****       -22.7500   2.2500   8.2500 Du        
   3383 ****       -22.7500   2.2500   8.5000 Du        
   3384 ****       -22.7500   2.2500   8.7500 Du        
   3385 ****       -22.7500   2.2500   9.0000 Du        
   3386 ****       -22.7500   2.2500   9.2500 Du        
   3387 ****       -22.7500   2.5000   8.0000 Du        
   3388 ****       -22.7500   2.5000   8.2500 Du        
   3389 ****       -22.7500   2.5000   8.5000 Du        
   3390 ****       -22.7500   2.5000   8.7500 Du        
   3391 ****       -22.7500   2.5000   9.0000 Du        
   3392 ****       -22.7500   2.5000   9.2500 Du        
   3393 ****       -22.7500   2.7500   7.7500 Du        
   3394 ****       -22.7500   2.7500   8.0000 Du        
   3395 ****       -22.7500   2.7500   8.2500 Du        
   3396 ****       -22.7500   2.7500   8.5000 Du        
   3397 ****       -22.7500   2.7500   8.7500 Du        
   3398 ****       -22.7500   2.7500   9.0000 Du        
   3399 ****       -22.7500   2.7500   9.2500 Du        
   3400 ****       -22.7500   2.7500   9.5000 Du        
   3401 ****       -22.7500   3.0000   8.0000 Du        
   3402 ****       -22.7500   3.0000   8.2500 Du        
   3403 ****       -22.7500   3.0000   8.5000 Du        
   3404 ****       -22.7500   3.0000   8.7500 Du        
   3405 ****       -22.7500   3.0000   9.0000 Du        
   3406 ****       -22.7500   3.0000   9.2500 Du        
   3407 ****       -22.7500   3.0000   9.5000 Du        
   3408 ****       -22.7500   3.2500   8.2500 Du        
   3409 ****       -22.7500   3.2500   8.5000 Du        
   3410 ****       -22.7500   3.2500   8.7500 Du        
   3411 ****       -22.7500   3.2500   9.0000 Du        
   3412 ****       -22.7500   3.2500   9.2500 Du        
   3413 ****       -22.7500   3.2500   9.5000 Du        
   3414 ****       -22.7500   3.2500   9.7500 Du        
   3415 ****       -22.7500   3.5000   9.0000 Du        
   3416 ****       -22.7500   3.5000   9.2500 Du        
   3417 ****       -22.7500   3.5000   9.5000 Du        
   3418 ****       -22.7500   3.5000   9.7500 Du        
   3419 ****       -22.7500   3.7500   9.0000 Du        
   3420 ****       -22.7500   3.7500   9.2500 Du        
   3421 ****       -22.7500   3.7500   9.5000 Du        
   3422 ****       -22.7500   3.7500   9.7500 Du        
   3423 ****       -22.7500   3.7500  10.0000 Du        
   3424 ****       -22.7500   4.0000   9.0000 Du        
   3425 ****       -22.7500   4.0000   9.2500 Du        
   3426 ****       -22.7500   4.0000   9.5000 Du        
   3427 ****       -22.7500   4.0000   9.7500 Du        
   3428 ****       -22.7500   4.0000  10.0000 Du        
   3429 ****       -22.7500   4.0000  10.2500 Du        
   3430 ****       -22.7500   4.2500   9.0000 Du        
   3431 ****       -22.7500   4.2500   9.2500 Du        
   3432 ****       -22.7500   4.2500   9.5000 Du        
   3433 ****       -22.7500   4.2500   9.7500 Du        
   3434 ****       -22.7500   4.2500  10.0000 Du        
   3435 ****       -22.7500   4.2500  10.2500 Du        
   3436 ****       -22.7500   4.5000   9.5000 Du        
   3437 ****       -22.7500   4.5000   9.7500 Du        
   3438 ****       -22.7500   4.5000  10.0000 Du        
   3439 ****       -22.7500   4.7500   9.5000 Du        
   3440 ****       -22.5000   1.2500   7.5000 Du        
   3441 ****       -22.5000   1.2500   7.7500 Du        
   3442 ****       -22.5000   1.2500   8.0000 Du        
   3443 ****       -22.5000   1.2500   8.2500 Du        
   3444 ****       -22.5000   1.5000   7.7500 Du        
   3445 ****       -22.5000   1.5000   8.0000 Du        
   3446 ****       -22.5000   1.5000   8.2500 Du        
   3447 ****       -22.5000   1.5000   8.5000 Du        
   3448 ****       -22.5000   1.5000   8.7500 Du        
   3449 ****       -22.5000   1.7500   8.0000 Du        
   3450 ****       -22.5000   1.7500   8.2500 Du        
   3451 ****       -22.5000   1.7500   8.5000 Du        
   3452 ****       -22.5000   1.7500   8.7500 Du        
   3453 ****       -22.5000   1.7500   9.0000 Du        
   3454 ****       -22.5000   1.7500   9.2500 Du        
   3455 ****       -22.5000   2.0000   8.2500 Du        
   3456 ****       -22.5000   2.0000   8.5000 Du        
   3457 ****       -22.5000   2.0000   8.7500 Du        
   3458 ****       -22.5000   2.0000   9.0000 Du        
   3459 ****       -22.5000   2.0000   9.2500 Du        
   3460 ****       -22.5000   2.2500   8.5000 Du        
   3461 ****       -22.5000   2.2500   8.7500 Du        
   3462 ****       -22.5000   2.2500   9.0000 Du        
   3463 ****       -22.5000   2.2500   9.2500 Du        
   3464 ****       -22.5000   2.2500   9.5000 Du        
   3465 ****       -22.5000   2.5000   8.5000 Du        
   3466 ****       -22.5000   2.5000   8.7500 Du        
   3467 ****       -22.5000   2.5000   9.0000 Du        
   3468 ****       -22.5000   2.5000   9.2500 Du        
   3469 ****       -22.5000   2.5000   9.5000 Du        
   3470 ****       -22.5000   2.7500   8.5000 Du        
   3471 ****       -22.5000   2.7500   8.7500 Du        
   3472 ****       -22.5000   2.7500   9.0000 Du        
   3473 ****       -22.5000   2.7500   9.2500 Du        
   3474 ****       -22.5000   2.7500   9.5000 Du        
   3475 ****       -22.5000   2.7500   9.7500 Du        
   3476 ****       -22.5000   3.0000   8.7500 Du        
   3477 ****       -22.5000   3.0000   9.0000 Du        
   3478 ****       -22.5000   3.0000   9.2500 Du        
   3479 ****       -22.5000   3.0000   9.5000 Du        
   3480 ****       -22.5000   3.0000   9.7500 Du        
   3481 ****       -22.5000   3.2500   9.2500 Du        
   3482 ****       -22.5000   3.2500   9.5000 Du        
   3483 ****       -22.5000   3.2500   9.7500 Du        
   3484 ****       -22.5000   3.2500  10.0000 Du        
   3485 ****       -22.5000   3.5000   9.5000 Du        
   3486 ****       -22.5000   3.5000   9.7500 Du        
   3487 ****       -22.5000   3.5000  10.0000 Du        
   3488 ****       -22.5000   3.7500   9.5000 Du        
   3489 ****       -22.5000   3.7500   9.7500 Du        
   3490 ****       -22.5000   3.7500  10.0000 Du        
   3491 ****       -22.5000   3.7500  10.2500 Du        
   3492 ****       -22.5000   3.7500  10.5000 Du        
   3493 ****       -22.5000   4.0000   9.5000 Du        
   3494 ****       -22.5000   4.0000   9.7500 Du        
   3495 ****       -22.5000   4.0000  10.0000 Du        
   3496 ****       -22.5000   4.0000  10.2500 Du        
   3497 ****       -22.5000   4.0000  10.5000 Du        
   3498 ****       -22.5000   4.0000  10.7500 Du        
   3499 ****       -22.5000   4.2500   9.5000 Du        
   3500 ****       -22.5000   4.2500   9.7500 Du        
   3501 ****       -22.5000   4.2500  10.0000 Du        
   3502 ****       -22.5000   4.2500  10.2500 Du        
   3503 ****       -22.5000   4.2500  10.5000 Du        
   3504 ****       -22.5000   4.5000  10.0000 Du        
   3505 ****       -22.2500   1.7500   8.5000 Du        
   3506 ****       -22.2500   1.7500   8.7500 Du        
   3507 ****       -22.2500   1.7500   9.0000 Du        
   3508 ****       -22.2500   1.7500   9.2500 Du        
   3509 ****       -22.2500   2.0000   8.5000 Du        
   3510 ****       -22.2500   2.0000   8.7500 Du        
   3511 ****       -22.2500   2.0000   9.0000 Du        
   3512 ****       -22.2500   2.0000   9.2500 Du        
   3513 ****       -22.2500   2.0000   9.5000 Du        
   3514 ****       -22.2500   2.2500   8.5000 Du        
   3515 ****       -22.2500   2.2500   8.7500 Du        
   3516 ****       -22.2500   2.2500   9.0000 Du        
   3517 ****       -22.2500   2.2500   9.2500 Du        
   3518 ****       -22.2500   2.2500   9.5000 Du        
   3519 ****       -22.2500   2.2500   9.7500 Du        
   3520 ****       -22.2500   2.5000   8.5000 Du        
   3521 ****       -22.2500   2.5000   8.7500 Du        
   3522 ****       -22.2500   2.5000   9.0000 Du        
   3523 ****       -22.2500   2.5000   9.2500 Du        
   3524 ****       -22.2500   2.5000   9.5000 Du        
   3525 ****       -22.2500   2.5000   9.7500 Du        
   3526 ****       -22.2500   2.7500   8.7500 Du        
   3527 ****       -22.2500   2.7500   9.0000 Du        
   3528 ****       -22.2500   2.7500   9.2500 Du        
   3529 ****       -22.2500   2.7500   9.5000 Du        
   3530 ****       -22.2500   2.7500   9.7500 Du        
   3531 ****       -22.2500   2.7500  10.0000 Du        
   3532 ****       -22.2500   3.0000   9.0000 Du        
   3533 ****       -22.2500   3.0000   9.2500 Du        
   3534 ****       -22.2500   3.0000   9.5000 Du        
   3535 ****       -22.2500   3.0000   9.7500 Du        
   3536 ****       -22.2500   3.0000  10.0000 Du        
   3537 ****       -22.2500   3.0000  10.2500 Du        
   3538 ****       -22.2500   3.2500   9.5000 Du        
   3539 ****       -22.2500   3.2500   9.7500 Du        
   3540 ****       -22.2500   3.2500  10.0000 Du        
   3541 ****       -22.2500   3.2500  10.2500 Du        
   3542 ****       -22.2500   3.5000   9.5000 Du        
   3543 ****       -22.2500   3.5000   9.7500 Du        
   3544 ****       -22.2500   3.5000  10.0000 Du        
   3545 ****       -22.2500   3.5000  10.2500 Du        
   3546 ****       -22.2500   3.5000  10.5000 Du        
   3547 ****       -22.2500   3.7500   9.5000 Du        
   3548 ****       -22.2500   3.7500   9.7500 Du        
   3549 ****       -22.2500   3.7500  10.0000 Du        
   3550 ****       -22.2500   3.7500  10.2500 Du        
   3551 ****       -22.2500   3.7500  10.5000 Du        
   3552 ****       -22.2500   3.7500  10.7500 Du        
   3553 ****       -22.2500   3.7500  11.0000 Du        
   3554 ****       -22.2500   4.0000   9.5000 Du        
   3555 ****       -22.2500   4.0000   9.7500 Du        
   3556 ****       -22.2500   4.0000  10.0000 Du        
   3557 ****       -22.2500   4.0000  10.2500 Du        
   3558 ****       -22.2500   4.0000  10.5000 Du        
   3559 ****       -22.2500   4.0000  10.7500 Du        
   3560 ****       -22.2500   4.0000  11.0000 Du        
   3561 ****       -22.2500   4.2500   9.7500 Du        
   3562 ****       -22.2500   4.2500  10.0000 Du        
   3563 ****       -22.2500   4.2500  10.2500 Du        
   3564 ****       -22.2500   4.2500  10.5000 Du        
   3565 ****       -22.2500   4.2500  10.7500 Du        
   3566 ****       -22.2500   4.2500  11.0000 Du        
   3567 ****       -22.2500   4.5000  10.0000 Du        
   3568 ****       -22.0000   2.0000   8.5000 Du        
   3569 ****       -22.0000   2.0000   8.7500 Du        
   3570 ****       -22.0000   2.0000   9.0000 Du        
   3571 ****       -22.0000   2.0000   9.2500 Du        
   3572 ****       -22.0000   2.0000   9.5000 Du        
   3573 ****       -22.0000   2.2500   8.5000 Du        
   3574 ****       -22.0000   2.2500   8.7500 Du        
   3575 ****       -22.0000   2.2500   9.0000 Du        
   3576 ****       -22.0000   2.2500   9.2500 Du        
   3577 ****       -22.0000   2.2500   9.5000 Du        
   3578 ****       -22.0000   2.2500   9.7500 Du        
   3579 ****       -22.0000   2.2500  10.0000 Du        
   3580 ****       -22.0000   2.5000   8.7500 Du        
   3581 ****       -22.0000   2.5000   9.0000 Du        
   3582 ****       -22.0000   2.5000   9.2500 Du        
   3583 ****       -22.0000   2.5000   9.5000 Du        
   3584 ****       -22.0000   2.5000   9.7500 Du        
   3585 ****       -22.0000   2.5000  10.0000 Du        
   3586 ****       -22.0000   2.5000  10.2500 Du        
   3587 ****       -22.0000   2.7500   9.2500 Du        
   3588 ****       -22.0000   2.7500   9.5000 Du        
   3589 ****       -22.0000   2.7500   9.7500 Du        
   3590 ****       -22.0000   2.7500  10.0000 Du        
   3591 ****       -22.0000   2.7500  10.2500 Du        
   3592 ****       -22.0000   2.7500  10.5000 Du        
   3593 ****       -22.0000   3.0000   9.5000 Du        
   3594 ****       -22.0000   3.0000   9.7500 Du        
   3595 ****       -22.0000   3.0000  10.0000 Du        
   3596 ****       -22.0000   3.0000  10.2500 Du        
   3597 ****       -22.0000   3.0000  10.5000 Du        
   3598 ****       -22.0000   3.0000  10.7500 Du        
   3599 ****       -22.0000   3.2500   9.5000 Du        
   3600 ****       -22.0000   3.2500   9.7500 Du        
   3601 ****       -22.0000   3.2500  10.0000 Du        
   3602 ****       -22.0000   3.2500  10.2500 Du        
   3603 ****       -22.0000   3.2500  10.5000 Du        
   3604 ****       -22.0000   3.2500  10.7500 Du        
   3605 ****       -22.0000   3.2500  11.0000 Du        
   3606 ****       -22.0000   3.5000  10.0000 Du        
   3607 ****       -22.0000   3.5000  10.2500 Du        
   3608 ****       -22.0000   3.5000  10.5000 Du        
   3609 ****       -22.0000   3.5000  10.7500 Du        
   3610 ****       -22.0000   3.5000  11.0000 Du        
   3611 ****       -22.0000   3.7500   9.7500 Du        
   3612 ****       -22.0000   3.7500  10.0000 Du        
   3613 ****       -22.0000   3.7500  10.2500 Du        
   3614 ****       -22.0000   3.7500  10.5000 Du        
   3615 ****       -22.0000   3.7500  10.7500 Du        
   3616 ****       -22.0000   3.7500  11.0000 Du        
   3617 ****       -22.0000   3.7500  11.2500 Du        
   3618 ****       -22.0000   3.7500  11.5000 Du        
   3619 ****       -22.0000   3.7500  11.7500 Du        
   3620 ****       -22.0000   4.0000   9.7500 Du        
   3621 ****       -22.0000   4.0000  10.0000 Du        
   3622 ****       -22.0000   4.0000  10.2500 Du        
   3623 ****       -22.0000   4.0000  10.5000 Du        
   3624 ****       -22.0000   4.0000  10.7500 Du        
   3625 ****       -22.0000   4.0000  11.0000 Du        
   3626 ****       -22.0000   4.0000  11.2500 Du        
   3627 ****       -22.0000   4.0000  11.5000 Du        
   3628 ****       -22.0000   4.0000  11.7500 Du        
   3629 ****       -22.0000   4.2500  10.0000 Du        
   3630 ****       -22.0000   4.2500  10.2500 Du        
   3631 ****       -22.0000   4.2500  10.5000 Du        
   3632 ****       -22.0000   4.2500  10.7500 Du        
   3633 ****       -22.0000   4.2500  11.0000 Du        
   3634 ****       -22.0000   4.2500  11.2500 Du        
   3635 ****       -22.0000   4.2500  11.5000 Du        
   3636 ****       -22.0000   4.2500  11.7500 Du        
   3637 ****       -22.0000   4.5000  10.5000 Du        
   3638 ****       -22.0000   4.5000  10.7500 Du        
   3639 ****       -21.7500   2.2500   9.2500 Du        
   3640 ****       -21.7500   2.2500   9.5000 Du        
   3641 ****       -21.7500   2.2500   9.7500 Du        
   3642 ****       -21.7500   2.2500  10.0000 Du        
   3643 ****       -21.7500   2.5000   9.5000 Du        
   3644 ****       -21.7500   2.5000   9.7500 Du        
   3645 ****       -21.7500   2.5000  10.0000 Du        
   3646 ****       -21.7500   2.5000  10.2500 Du        
   3647 ****       -21.7500   2.5000  10.5000 Du        
   3648 ****       -21.7500   2.7500   9.5000 Du        
   3649 ****       -21.7500   2.7500   9.7500 Du        
   3650 ****       -21.7500   2.7500  10.0000 Du        
   3651 ****       -21.7500   2.7500  10.2500 Du        
   3652 ****       -21.7500   2.7500  10.5000 Du        
   3653 ****       -21.7500   2.7500  10.7500 Du        
   3654 ****       -21.7500   2.7500  11.0000 Du        
   3655 ****       -21.7500   3.0000   9.5000 Du        
   3656 ****       -21.7500   3.0000   9.7500 Du        
   3657 ****       -21.7500   3.0000  10.0000 Du        
   3658 ****       -21.7500   3.0000  10.2500 Du        
   3659 ****       -21.7500   3.0000  10.5000 Du        
   3660 ****       -21.7500   3.0000  10.7500 Du        
   3661 ****       -21.7500   3.0000  11.0000 Du        
   3662 ****       -21.7500   3.0000  11.2500 Du        
   3663 ****       -21.7500   3.2500  10.0000 Du        
   3664 ****       -21.7500   3.2500  10.2500 Du        
   3665 ****       -21.7500   3.2500  10.5000 Du        
   3666 ****       -21.7500   3.2500  10.7500 Du        
   3667 ****       -21.7500   3.2500  11.0000 Du        
   3668 ****       -21.7500   3.2500  11.2500 Du        
   3669 ****       -21.7500   3.2500  11.5000 Du        
   3670 ****       -21.7500   3.5000  10.2500 Du        
   3671 ****       -21.7500   3.5000  10.5000 Du        
   3672 ****       -21.7500   3.5000  10.7500 Du        
   3673 ****       -21.7500   3.5000  11.0000 Du        
   3674 ****       -21.7500   3.5000  11.2500 Du        
   3675 ****       -21.7500   3.5000  11.5000 Du        
   3676 ****       -21.7500   3.5000  11.7500 Du        
   3677 ****       -21.7500   3.7500  10.2500 Du        
   3678 ****       -21.7500   3.7500  10.5000 Du        
   3679 ****       -21.7500   3.7500  10.7500 Du        
   3680 ****       -21.7500   3.7500  11.0000 Du        
   3681 ****       -21.7500   3.7500  11.2500 Du        
   3682 ****       -21.7500   3.7500  11.5000 Du        
   3683 ****       -21.7500   3.7500  11.7500 Du        
   3684 ****       -21.7500   3.7500  12.0000 Du        
   3685 ****       -21.7500   4.0000  10.2500 Du        
   3686 ****       -21.7500   4.0000  10.5000 Du        
   3687 ****       -21.7500   4.0000  10.7500 Du        
   3688 ****       -21.7500   4.0000  11.0000 Du        
   3689 ****       -21.7500   4.0000  11.2500 Du        
   3690 ****       -21.7500   4.0000  11.5000 Du        
   3691 ****       -21.7500   4.0000  11.7500 Du        
   3692 ****       -21.7500   4.0000  12.0000 Du        
   3693 ****       -21.7500   4.2500  10.0000 Du        
   3694 ****       -21.7500   4.2500  10.2500 Du        
   3695 ****       -21.7500   4.2500  10.5000 Du        
   3696 ****       -21.7500   4.2500  10.7500 Du        
   3697 ****       -21.7500   4.2500  11.0000 Du        
   3698 ****       -21.7500   4.2500  11.2500 Du        
   3699 ****       -21.7500   4.2500  11.5000 Du        
   3700 ****       -21.7500   4.2500  11.7500 Du        
   3701 ****       -21.7500   4.2500  12.0000 Du        
   3702 ****       -21.7500   4.5000  10.7500 Du        
   3703 ****       -21.7500   4.5000  11.0000 Du        
   3704 ****       -21.7500   4.5000  11.2500 Du        
   3705 ****       -21.7500   4.5000  11.5000 Du        
   3706 ****       -21.7500   4.7500  10.5000 Du        
   3707 ****       -21.5000   3.0000  10.7500 Du        
   3708 ****       -21.5000   3.0000  11.0000 Du        
   3709 ****       -21.5000   3.2500  11.5000 Du        
   3710 ****       -21.5000   3.7500  11.2500 Du        
   3711 ****       -21.5000   3.7500  11.5000 Du        
   3712 ****       -21.5000   3.7500  11.7500 Du        
   3713 ****       -21.5000   4.0000  11.2500 Du        
   3714 ****       -21.5000   4.0000  11.5000 Du        
   3715 ****       -21.5000   4.0000  11.7500 Du        
   3716 ****       -21.5000   4.2500  11.5000 Du        
   3717 ****       -21.5000   4.2500  11.7500 Du        
   3718 ****       -21.2500   0.7500  14.0000 Du        
   3719 ****       -21.2500   0.7500  14.2500 Du        
   3720 ****       -21.2500   2.7500  11.5000 Du        
   3721 ****       -21.2500   3.0000  11.0000 Du        
   3722 ****       -21.2500   3.0000  11.2500 Du        
   3723 ****       -21.2500   3.0000  11.5000 Du        
   3724 ****       -21.2500   3.0000  11.7500 Du        
   3725 ****       -21.2500   3.2500  11.2500 Du        
   3726 ****       -21.2500   3.2500  11.5000 Du        
   3727 ****       -21.2500   3.2500  11.7500 Du        
   3728 ****       -21.2500   3.7500  11.7500 Du        
   3729 ****       -21.2500   4.0000  11.5000 Du        
   3730 ****       -21.2500   4.0000  11.7500 Du        
   3731 ****       -21.2500   4.2500  11.5000 Du        
   3732 ****       -21.2500   4.2500  11.7500 Du        
   3733 ****       -21.0000   0.2500  14.0000 Du        
   3734 ****       -21.0000   0.2500  14.2500 Du        
   3735 ****       -21.0000   0.5000  13.7500 Du        
   3736 ****       -21.0000   0.5000  14.0000 Du        
   3737 ****       -21.0000   0.5000  14.2500 Du        
   3738 ****       -21.0000   0.7500  13.7500 Du        
   3739 ****       -21.0000   0.7500  14.0000 Du        
   3740 ****       -21.0000   0.7500  14.2500 Du        
   3741 ****       -21.0000   0.7500  14.5000 Du        
   3742 ****       -21.0000   1.0000  13.5000 Du        
   3743 ****       -21.0000   1.0000  13.7500 Du        
   3744 ****       -21.0000   1.0000  14.0000 Du        
   3745 ****       -21.0000   1.0000  14.2500 Du        
   3746 ****       -21.0000   1.0000  14.5000 Du        
   3747 ****       -21.0000   1.2500  13.5000 Du        
   3748 ****       -21.0000   1.2500  13.7500 Du        
   3749 ****       -21.0000   1.2500  14.0000 Du        
   3750 ****       -21.0000   2.7500  11.7500 Du        
   3751 ****       -21.0000   2.7500  12.0000 Du        
   3752 ****       -21.0000   3.0000  11.5000 Du        
   3753 ****       -21.0000   3.0000  11.7500 Du        
   3754 ****       -21.0000   3.0000  12.0000 Du        
   3755 ****       -21.0000   3.2500  11.7500 Du        
   3756 ****       -21.0000   6.0000  33.2500 Du        
   3757 ****       -21.0000   6.0000  33.5000 Du        
   3758 ****       -21.0000   6.0000  33.7500 Du        
   3759 ****       -21.0000   6.0000  34.0000 Du        
   3760 ****       -21.0000   6.2500  33.2500 Du        
   3761 ****       -21.0000   6.7500  11.0000 Du        
   3762 ****       -20.7500   0.0000  14.0000 Du        
   3763 ****       -20.7500   0.0000  14.2500 Du        
   3764 ****       -20.7500   0.2500  14.0000 Du        
   3765 ****       -20.7500   0.2500  14.2500 Du        
   3766 ****       -20.7500   0.2500  14.5000 Du        
   3767 ****       -20.7500   0.5000  13.7500 Du        
   3768 ****       -20.7500   0.5000  14.0000 Du        
   3769 ****       -20.7500   0.5000  14.2500 Du        
   3770 ****       -20.7500   0.5000  14.5000 Du        
   3771 ****       -20.7500   0.7500  13.5000 Du        
   3772 ****       -20.7500   0.7500  13.7500 Du        
   3773 ****       -20.7500   0.7500  14.0000 Du        
   3774 ****       -20.7500   0.7500  14.2500 Du        
   3775 ****       -20.7500   0.7500  14.5000 Du        
   3776 ****       -20.7500   0.7500  14.7500 Du        
   3777 ****       -20.7500   1.0000  13.5000 Du        
   3778 ****       -20.7500   1.0000  13.7500 Du        
   3779 ****       -20.7500   1.0000  14.0000 Du        
   3780 ****       -20.7500   1.0000  14.2500 Du        
   3781 ****       -20.7500   1.0000  14.5000 Du        
   3782 ****       -20.7500   1.0000  14.7500 Du        
   3783 ****       -20.7500   1.2500  13.2500 Du        
   3784 ****       -20.7500   1.2500  13.5000 Du        
   3785 ****       -20.7500   1.2500  13.7500 Du        
   3786 ****       -20.7500   1.2500  14.0000 Du        
   3787 ****       -20.7500   1.2500  14.2500 Du        
   3788 ****       -20.7500   1.2500  14.5000 Du        
   3789 ****       -20.7500   1.5000  13.5000 Du        
   3790 ****       -20.7500   1.5000  13.7500 Du        
   3791 ****       -20.7500   3.0000  11.7500 Du        
   3792 ****       -20.7500   6.0000  11.5000 Du        
   3793 ****       -20.7500   6.0000  11.7500 Du        
   3794 ****       -20.7500   6.0000  33.0000 Du        
   3795 ****       -20.7500   6.0000  33.2500 Du        
   3796 ****       -20.7500   6.0000  33.5000 Du        
   3797 ****       -20.7500   6.0000  33.7500 Du        
   3798 ****       -20.7500   6.2500  11.5000 Du        
   3799 ****       -20.7500   6.2500  11.7500 Du        
   3800 ****       -20.7500   6.2500  33.0000 Du        
   3801 ****       -20.7500   6.2500  33.2500 Du        
   3802 ****       -20.7500   6.2500  33.5000 Du        
   3803 ****       -20.7500   6.2500  33.7500 Du        
   3804 ****       -20.7500   6.2500  34.0000 Du        
   3805 ****       -20.7500   6.5000  11.5000 Du        
   3806 ****       -20.5000  -0.7500  14.2500 Du        
   3807 ****       -20.5000  -0.5000  14.2500 Du        
   3808 ****       -20.5000  -0.2500  14.0000 Du        
   3809 ****       -20.5000  -0.2500  14.2500 Du        
   3810 ****       -20.5000   0.0000  14.0000 Du        
   3811 ****       -20.5000   0.0000  14.2500 Du        
   3812 ****       -20.5000   0.0000  14.5000 Du        
   3813 ****       -20.5000   0.2500  13.7500 Du        
   3814 ****       -20.5000   0.2500  14.0000 Du        
   3815 ****       -20.5000   0.2500  14.2500 Du        
   3816 ****       -20.5000   0.2500  14.5000 Du        
   3817 ****       -20.5000   0.5000  13.7500 Du        
   3818 ****       -20.5000   0.5000  14.0000 Du        
   3819 ****       -20.5000   0.5000  14.2500 Du        
   3820 ****       -20.5000   0.5000  14.5000 Du        
   3821 ****       -20.5000   0.5000  14.7500 Du        
   3822 ****       -20.5000   0.7500  13.7500 Du        
   3823 ****       -20.5000   0.7500  14.0000 Du        
   3824 ****       -20.5000   0.7500  14.2500 Du        
   3825 ****       -20.5000   0.7500  14.5000 Du        
   3826 ****       -20.5000   0.7500  14.7500 Du        
   3827 ****       -20.5000   1.0000  13.5000 Du        
   3828 ****       -20.5000   1.0000  13.7500 Du        
   3829 ****       -20.5000   1.0000  14.0000 Du        
   3830 ****       -20.5000   1.0000  14.2500 Du        
   3831 ****       -20.5000   1.0000  14.5000 Du        
   3832 ****       -20.5000   1.0000  14.7500 Du        
   3833 ****       -20.5000   1.0000  15.0000 Du        
   3834 ****       -20.5000   1.2500  13.5000 Du        
   3835 ****       -20.5000   1.2500  13.7500 Du        
   3836 ****       -20.5000   1.2500  14.0000 Du        
   3837 ****       -20.5000   1.2500  14.2500 Du        
   3838 ****       -20.5000   1.2500  14.5000 Du        
   3839 ****       -20.5000   1.2500  14.7500 Du        
   3840 ****       -20.5000   1.5000  13.2500 Du        
   3841 ****       -20.5000   1.5000  13.5000 Du        
   3842 ****       -20.5000   1.5000  13.7500 Du        
   3843 ****       -20.5000   1.5000  14.0000 Du        
   3844 ****       -20.5000   1.7500  13.5000 Du        
   3845 ****       -20.5000   6.0000  32.7500 Du        
   3846 ****       -20.5000   6.0000  33.0000 Du        
   3847 ****       -20.5000   6.0000  33.2500 Du        
   3848 ****       -20.5000   6.2500  32.7500 Du        
   3849 ****       -20.5000   6.2500  33.0000 Du        
   3850 ****       -20.5000   6.2500  33.2500 Du        
   3851 ****       -20.5000   6.2500  33.5000 Du        
   3852 ****       -20.5000   6.5000  32.7500 Du        
   3853 ****       -20.5000   6.5000  33.0000 Du        
   3854 ****       -20.5000   6.5000  33.2500 Du        
   3855 ****       -20.2500  -1.2500  14.2500 Du        
   3856 ****       -20.2500  -1.0000  14.0000 Du        
   3857 ****       -20.2500  -1.0000  14.2500 Du        
   3858 ****       -20.2500  -1.0000  14.5000 Du        
   3859 ****       -20.2500  -0.7500  14.0000 Du        
   3860 ****       -20.2500  -0.7500  14.2500 Du        
   3861 ****       -20.2500  -0.7500  14.5000 Du        
   3862 ****       -20.2500  -0.5000  14.0000 Du        
   3863 ****       -20.2500  -0.5000  14.2500 Du        
   3864 ****       -20.2500  -0.5000  14.5000 Du        
   3865 ****       -20.2500  -0.2500  14.0000 Du        
   3866 ****       -20.2500  -0.2500  14.2500 Du        
   3867 ****       -20.2500  -0.2500  14.5000 Du        
   3868 ****       -20.2500   0.0000  13.7500 Du        
   3869 ****       -20.2500   0.0000  14.0000 Du        
   3870 ****       -20.2500   0.0000  14.2500 Du        
   3871 ****       -20.2500   0.0000  14.5000 Du        
   3872 ****       -20.2500   0.0000  14.7500 Du        
   3873 ****       -20.2500   0.2500  13.7500 Du        
   3874 ****       -20.2500   0.2500  14.0000 Du        
   3875 ****       -20.2500   0.2500  14.2500 Du        
   3876 ****       -20.2500   0.2500  14.5000 Du        
   3877 ****       -20.2500   0.2500  14.7500 Du        
   3878 ****       -20.2500   0.5000  13.7500 Du        
   3879 ****       -20.2500   0.5000  14.0000 Du        
   3880 ****       -20.2500   0.5000  14.2500 Du        
   3881 ****       -20.2500   0.5000  14.5000 Du        
   3882 ****       -20.2500   0.5000  14.7500 Du        
   3883 ****       -20.2500   0.5000  15.0000 Du        
   3884 ****       -20.2500   0.7500  13.5000 Du        
   3885 ****       -20.2500   0.7500  13.7500 Du        
   3886 ****       -20.2500   0.7500  14.0000 Du        
   3887 ****       -20.2500   0.7500  14.2500 Du        
   3888 ****       -20.2500   0.7500  14.5000 Du        
   3889 ****       -20.2500   0.7500  14.7500 Du        
   3890 ****       -20.2500   0.7500  15.0000 Du        
   3891 ****       -20.2500   1.0000  13.5000 Du        
   3892 ****       -20.2500   1.0000  13.7500 Du        
   3893 ****       -20.2500   1.0000  14.0000 Du        
   3894 ****       -20.2500   1.0000  14.2500 Du        
   3895 ****       -20.2500   1.0000  14.5000 Du        
   3896 ****       -20.2500   1.0000  14.7500 Du        
   3897 ****       -20.2500   1.0000  15.0000 Du        
   3898 ****       -20.2500   1.0000  15.2500 Du        
   3899 ****       -20.2500   1.2500  13.5000 Du        
   3900 ****       -20.2500   1.2500  13.7500 Du        
   3901 ****       -20.2500   1.2500  14.0000 Du        
   3902 ****       -20.2500   1.2500  14.2500 Du        
   3903 ****       -20.2500   1.2500  14.5000 Du        
   3904 ****       -20.2500   1.2500  14.7500 Du        
   3905 ****       -20.2500   1.2500  15.0000 Du        
   3906 ****       -20.2500   1.5000  13.2500 Du        
   3907 ****       -20.2500   1.5000  13.5000 Du        
   3908 ****       -20.2500   1.5000  13.7500 Du        
   3909 ****       -20.2500   1.5000  14.0000 Du        
   3910 ****       -20.2500   1.5000  14.2500 Du        
   3911 ****       -20.2500   1.7500  13.2500 Du        
   3912 ****       -20.2500   1.7500  13.5000 Du        
   3913 ****       -20.2500   1.7500  13.7500 Du        
   3914 ****       -20.2500   6.0000  32.7500 Du        
   3915 ****       -20.2500   6.0000  33.0000 Du        
   3916 ****       -20.2500   6.2500  32.5000 Du        
   3917 ****       -20.2500   6.2500  32.7500 Du        
   3918 ****       -20.2500   6.2500  33.0000 Du        
   3919 ****       -20.2500   6.2500  33.2500 Du        
   3920 ****       -20.2500   6.5000  32.7500 Du        
   3921 ****       -20.2500   6.5000  33.0000 Du        
   3922 ****       -20.2500   6.5000  33.2500 Du        
   3923 ****       -20.2500   6.7500  32.7500 Du        
   3924 ****       -20.2500   6.7500  33.0000 Du        
   3925 ****       -20.2500   6.7500  33.2500 Du        
   3926 ****       -20.0000  -1.2500  14.0000 Du        
   3927 ****       -20.0000  -1.2500  14.2500 Du        
   3928 ****       -20.0000  -1.0000  14.0000 Du        
   3929 ****       -20.0000  -1.0000  14.2500 Du        
   3930 ****       -20.0000  -1.0000  14.5000 Du        
   3931 ****       -20.0000  -1.0000  14.7500 Du        
   3932 ****       -20.0000  -0.7500  13.7500 Du        
   3933 ****       -20.0000  -0.7500  14.0000 Du        
   3934 ****       -20.0000  -0.7500  14.2500 Du        
   3935 ****       -20.0000  -0.7500  14.5000 Du        
   3936 ****       -20.0000  -0.7500  14.7500 Du        
   3937 ****       -20.0000  -0.5000  14.0000 Du        
   3938 ****       -20.0000  -0.5000  14.2500 Du        
   3939 ****       -20.0000  -0.5000  14.5000 Du        
   3940 ****       -20.0000  -0.5000  14.7500 Du        
   3941 ****       -20.0000  -0.2500  13.7500 Du        
   3942 ****       -20.0000  -0.2500  14.0000 Du        
   3943 ****       -20.0000  -0.2500  14.2500 Du        
   3944 ****       -20.0000  -0.2500  14.5000 Du        
   3945 ****       -20.0000  -0.2500  14.7500 Du        
   3946 ****       -20.0000   0.0000  13.7500 Du        
   3947 ****       -20.0000   0.0000  14.0000 Du        
   3948 ****       -20.0000   0.0000  14.2500 Du        
   3949 ****       -20.0000   0.0000  14.5000 Du        
   3950 ****       -20.0000   0.0000  14.7500 Du        
   3951 ****       -20.0000   0.0000  15.0000 Du        
   3952 ****       -20.0000   0.2500  13.7500 Du        
   3953 ****       -20.0000   0.2500  14.0000 Du        
   3954 ****       -20.0000   0.2500  14.2500 Du        
   3955 ****       -20.0000   0.2500  14.5000 Du        
   3956 ****       -20.0000   0.2500  14.7500 Du        
   3957 ****       -20.0000   0.2500  15.0000 Du        
   3958 ****       -20.0000   0.2500  15.2500 Du        
   3959 ****       -20.0000   0.5000  13.7500 Du        
   3960 ****       -20.0000   0.5000  14.0000 Du        
   3961 ****       -20.0000   0.5000  14.2500 Du        
   3962 ****       -20.0000   0.5000  14.5000 Du        
   3963 ****       -20.0000   0.5000  14.7500 Du        
   3964 ****       -20.0000   0.5000  15.0000 Du        
   3965 ****       -20.0000   0.5000  15.2500 Du        
   3966 ****       -20.0000   0.7500  13.5000 Du        
   3967 ****       -20.0000   0.7500  13.7500 Du        
   3968 ****       -20.0000   0.7500  14.0000 Du        
   3969 ****       -20.0000   0.7500  14.2500 Du        
   3970 ****       -20.0000   0.7500  14.5000 Du        
   3971 ****       -20.0000   0.7500  14.7500 Du        
   3972 ****       -20.0000   0.7500  15.0000 Du        
   3973 ****       -20.0000   0.7500  15.2500 Du        
   3974 ****       -20.0000   0.7500  15.5000 Du        
   3975 ****       -20.0000   1.0000  13.5000 Du        
   3976 ****       -20.0000   1.0000  13.7500 Du        
   3977 ****       -20.0000   1.0000  14.0000 Du        
   3978 ****       -20.0000   1.0000  14.2500 Du        
   3979 ****       -20.0000   1.0000  14.5000 Du        
   3980 ****       -20.0000   1.0000  14.7500 Du        
   3981 ****       -20.0000   1.0000  15.0000 Du        
   3982 ****       -20.0000   1.0000  15.2500 Du        
   3983 ****       -20.0000   1.0000  15.5000 Du        
   3984 ****       -20.0000   1.2500  13.5000 Du        
   3985 ****       -20.0000   1.2500  13.7500 Du        
   3986 ****       -20.0000   1.2500  14.0000 Du        
   3987 ****       -20.0000   1.2500  14.2500 Du        
   3988 ****       -20.0000   1.2500  14.5000 Du        
   3989 ****       -20.0000   1.2500  14.7500 Du        
   3990 ****       -20.0000   1.2500  15.0000 Du        
   3991 ****       -20.0000   1.2500  15.2500 Du        
   3992 ****       -20.0000   1.5000  13.2500 Du        
   3993 ****       -20.0000   1.5000  13.5000 Du        
   3994 ****       -20.0000   1.5000  13.7500 Du        
   3995 ****       -20.0000   1.5000  14.0000 Du        
   3996 ****       -20.0000   1.5000  14.2500 Du        
   3997 ****       -20.0000   1.5000  14.5000 Du        
   3998 ****       -20.0000   1.7500  13.2500 Du        
   3999 ****       -20.0000   1.7500  13.5000 Du        
   4000 ****       -20.0000   1.7500  13.7500 Du        
   4001 ****       -20.0000   1.7500  14.0000 Du        
   4002 ****       -20.0000   6.2500  32.5000 Du        
   4003 ****       -20.0000   6.2500  32.7500 Du        
   4004 ****       -20.0000   6.2500  33.0000 Du        
   4005 ****       -20.0000   6.5000  32.7500 Du        
   4006 ****       -20.0000   6.5000  33.0000 Du        
   4007 ****       -20.0000   6.7500  32.7500 Du        
   4008 ****       -20.0000   6.7500  33.0000 Du        
   4009 ****       -20.0000   6.7500  33.2500 Du        
   4010 ****       -20.0000   7.0000  32.7500 Du        
   4011 ****       -20.0000   7.0000  33.0000 Du        
   4012 ****       -20.0000   7.0000  33.2500 Du        
   4013 ****       -19.7500  -1.2500  14.0000 Du        
   4014 ****       -19.7500  -1.2500  14.2500 Du        
   4015 ****       -19.7500  -1.0000  13.7500 Du        
   4016 ****       -19.7500  -1.0000  14.0000 Du        
   4017 ****       -19.7500  -1.0000  14.2500 Du        
   4018 ****       -19.7500  -1.0000  14.5000 Du        
   4019 ****       -19.7500  -1.0000  14.7500 Du        
   4020 ****       -19.7500  -0.7500  13.7500 Du        
   4021 ****       -19.7500  -0.7500  14.0000 Du        
   4022 ****       -19.7500  -0.7500  14.2500 Du        
   4023 ****       -19.7500  -0.7500  14.5000 Du        
   4024 ****       -19.7500  -0.7500  14.7500 Du        
   4025 ****       -19.7500  -0.7500  15.0000 Du        
   4026 ****       -19.7500  -0.5000  13.7500 Du        
   4027 ****       -19.7500  -0.5000  14.0000 Du        
   4028 ****       -19.7500  -0.5000  14.2500 Du        
   4029 ****       -19.7500  -0.5000  14.5000 Du        
   4030 ****       -19.7500  -0.5000  14.7500 Du        
   4031 ****       -19.7500  -0.5000  15.0000 Du        
   4032 ****       -19.7500  -0.2500  13.7500 Du        
   4033 ****       -19.7500  -0.2500  14.0000 Du        
   4034 ****       -19.7500  -0.2500  14.2500 Du        
   4035 ****       -19.7500  -0.2500  14.5000 Du        
   4036 ****       -19.7500  -0.2500  14.7500 Du        
   4037 ****       -19.7500  -0.2500  15.0000 Du        
   4038 ****       -19.7500  -0.2500  15.2500 Du        
   4039 ****       -19.7500   0.0000  13.7500 Du        
   4040 ****       -19.7500   0.0000  14.0000 Du        
   4041 ****       -19.7500   0.0000  14.2500 Du        
   4042 ****       -19.7500   0.0000  14.5000 Du        
   4043 ****       -19.7500   0.0000  14.7500 Du        
   4044 ****       -19.7500   0.0000  15.0000 Du        
   4045 ****       -19.7500   0.0000  15.2500 Du        
   4046 ****       -19.7500   0.2500  13.7500 Du        
   4047 ****       -19.7500   0.2500  14.0000 Du        
   4048 ****       -19.7500   0.2500  14.2500 Du        
   4049 ****       -19.7500   0.2500  14.5000 Du        
   4050 ****       -19.7500   0.2500  14.7500 Du        
   4051 ****       -19.7500   0.2500  15.0000 Du        
   4052 ****       -19.7500   0.2500  15.2500 Du        
   4053 ****       -19.7500   0.2500  15.5000 Du        
   4054 ****       -19.7500   0.5000  13.7500 Du        
   4055 ****       -19.7500   0.5000  14.0000 Du        
   4056 ****       -19.7500   0.5000  14.2500 Du        
   4057 ****       -19.7500   0.5000  14.5000 Du        
   4058 ****       -19.7500   0.5000  14.7500 Du        
   4059 ****       -19.7500   0.5000  15.0000 Du        
   4060 ****       -19.7500   0.5000  15.2500 Du        
   4061 ****       -19.7500   0.5000  15.5000 Du        
   4062 ****       -19.7500   0.5000  15.7500 Du        
   4063 ****       -19.7500   0.7500  13.5000 Du        
   4064 ****       -19.7500   0.7500  13.7500 Du        
   4065 ****       -19.7500   0.7500  14.0000 Du        
   4066 ****       -19.7500   0.7500  14.2500 Du        
   4067 ****       -19.7500   0.7500  14.5000 Du        
   4068 ****       -19.7500   0.7500  14.7500 Du        
   4069 ****       -19.7500   0.7500  15.0000 Du        
   4070 ****       -19.7500   0.7500  15.2500 Du        
   4071 ****       -19.7500   0.7500  15.5000 Du        
   4072 ****       -19.7500   0.7500  15.7500 Du        
   4073 ****       -19.7500   0.7500  16.0000 Du        
   4074 ****       -19.7500   1.0000  13.5000 Du        
   4075 ****       -19.7500   1.0000  13.7500 Du        
   4076 ****       -19.7500   1.0000  14.0000 Du        
   4077 ****       -19.7500   1.0000  14.2500 Du        
   4078 ****       -19.7500   1.0000  14.5000 Du        
   4079 ****       -19.7500   1.0000  14.7500 Du        
   4080 ****       -19.7500   1.0000  15.0000 Du        
   4081 ****       -19.7500   1.0000  15.2500 Du        
   4082 ****       -19.7500   1.0000  15.5000 Du        
   4083 ****       -19.7500   1.0000  15.7500 Du        
   4084 ****       -19.7500   1.0000  16.0000 Du        
   4085 ****       -19.7500   1.2500  13.5000 Du        
   4086 ****       -19.7500   1.2500  13.7500 Du        
   4087 ****       -19.7500   1.2500  14.0000 Du        
   4088 ****       -19.7500   1.2500  14.2500 Du        
   4089 ****       -19.7500   1.2500  14.5000 Du        
   4090 ****       -19.7500   1.2500  14.7500 Du        
   4091 ****       -19.7500   1.2500  15.0000 Du        
   4092 ****       -19.7500   1.2500  15.2500 Du        
   4093 ****       -19.7500   1.2500  15.5000 Du        
   4094 ****       -19.7500   1.2500  15.7500 Du        
   4095 ****       -19.7500   1.5000  13.2500 Du        
   4096 ****       -19.7500   1.5000  13.5000 Du        
   4097 ****       -19.7500   1.5000  13.7500 Du        
   4098 ****       -19.7500   1.5000  14.0000 Du        
   4099 ****       -19.7500   1.5000  14.2500 Du        
   4100 ****       -19.7500   1.5000  14.5000 Du        
   4101 ****       -19.7500   1.5000  14.7500 Du        
   4102 ****       -19.7500   1.7500  13.2500 Du        
   4103 ****       -19.7500   1.7500  13.5000 Du        
   4104 ****       -19.7500   1.7500  13.7500 Du        
   4105 ****       -19.7500   1.7500  14.0000 Du        
   4106 ****       -19.7500   6.5000  32.7500 Du        
   4107 ****       -19.7500   6.7500  32.7500 Du        
   4108 ****       -19.7500   6.7500  33.0000 Du        
   4109 ****       -19.7500   7.0000  32.7500 Du        
   4110 ****       -19.7500   7.0000  33.0000 Du        
   4111 ****       -19.7500   7.0000  33.2500 Du        
   4112 ****       -19.7500   7.2500  32.7500 Du        
   4113 ****       -19.7500   7.2500  33.0000 Du        
   4114 ****       -19.7500   7.2500  33.2500 Du        
   4115 ****       -19.5000  -1.0000  14.0000 Du        
   4116 ****       -19.5000  -1.0000  14.2500 Du        
   4117 ****       -19.5000  -0.7500  13.7500 Du        
   4118 ****       -19.5000  -0.7500  14.0000 Du        
   4119 ****       -19.5000  -0.7500  14.2500 Du        
   4120 ****       -19.5000  -0.7500  14.5000 Du        
   4121 ****       -19.5000  -0.7500  14.7500 Du        
   4122 ****       -19.5000  -0.7500  15.0000 Du        
   4123 ****       -19.5000  -0.7500  15.2500 Du        
   4124 ****       -19.5000  -0.5000  13.7500 Du        
   4125 ****       -19.5000  -0.5000  14.0000 Du        
   4126 ****       -19.5000  -0.5000  14.2500 Du        
   4127 ****       -19.5000  -0.5000  14.5000 Du        
   4128 ****       -19.5000  -0.5000  14.7500 Du        
   4129 ****       -19.5000  -0.5000  15.0000 Du        
   4130 ****       -19.5000  -0.5000  15.2500 Du        
   4131 ****       -19.5000  -0.5000  15.5000 Du        
   4132 ****       -19.5000  -0.2500  13.7500 Du        
   4133 ****       -19.5000  -0.2500  14.0000 Du        
   4134 ****       -19.5000  -0.2500  14.2500 Du        
   4135 ****       -19.5000  -0.2500  14.5000 Du        
   4136 ****       -19.5000  -0.2500  14.7500 Du        
   4137 ****       -19.5000  -0.2500  15.0000 Du        
   4138 ****       -19.5000  -0.2500  15.2500 Du        
   4139 ****       -19.5000  -0.2500  15.5000 Du        
   4140 ****       -19.5000  -0.2500  15.7500 Du        
   4141 ****       -19.5000   0.0000  13.7500 Du        
   4142 ****       -19.5000   0.0000  14.0000 Du        
   4143 ****       -19.5000   0.0000  14.2500 Du        
   4144 ****       -19.5000   0.0000  14.5000 Du        
   4145 ****       -19.5000   0.0000  14.7500 Du        
   4146 ****       -19.5000   0.0000  15.0000 Du        
   4147 ****       -19.5000   0.0000  15.2500 Du        
   4148 ****       -19.5000   0.0000  15.5000 Du        
   4149 ****       -19.5000   0.0000  15.7500 Du        
   4150 ****       -19.5000   0.0000  16.0000 Du        
   4151 ****       -19.5000   0.2500  13.7500 Du        
   4152 ****       -19.5000   0.2500  14.0000 Du        
   4153 ****       -19.5000   0.2500  14.2500 Du        
   4154 ****       -19.5000   0.2500  14.5000 Du        
   4155 ****       -19.5000   0.2500  14.7500 Du        
   4156 ****       -19.5000   0.2500  15.0000 Du        
   4157 ****       -19.5000   0.2500  15.2500 Du        
   4158 ****       -19.5000   0.2500  15.5000 Du        
   4159 ****       -19.5000   0.2500  15.7500 Du        
   4160 ****       -19.5000   0.2500  16.0000 Du        
   4161 ****       -19.5000   0.5000  13.7500 Du        
   4162 ****       -19.5000   0.5000  14.0000 Du        
   4163 ****       -19.5000   0.5000  14.2500 Du        
   4164 ****       -19.5000   0.5000  14.5000 Du        
   4165 ****       -19.5000   0.5000  14.7500 Du        
   4166 ****       -19.5000   0.5000  15.0000 Du        
   4167 ****       -19.5000   0.5000  15.2500 Du        
   4168 ****       -19.5000   0.5000  15.5000 Du        
   4169 ****       -19.5000   0.5000  15.7500 Du        
   4170 ****       -19.5000   0.5000  16.0000 Du        
   4171 ****       -19.5000   0.5000  16.2500 Du        
   4172 ****       -19.5000   0.7500  13.5000 Du        
   4173 ****       -19.5000   0.7500  13.7500 Du        
   4174 ****       -19.5000   0.7500  14.0000 Du        
   4175 ****       -19.5000   0.7500  14.2500 Du        
   4176 ****       -19.5000   0.7500  14.5000 Du        
   4177 ****       -19.5000   0.7500  14.7500 Du        
   4178 ****       -19.5000   0.7500  15.0000 Du        
   4179 ****       -19.5000   0.7500  15.2500 Du        
   4180 ****       -19.5000   0.7500  15.5000 Du        
   4181 ****       -19.5000   0.7500  15.7500 Du        
   4182 ****       -19.5000   0.7500  16.0000 Du        
   4183 ****       -19.5000   0.7500  16.2500 Du        
   4184 ****       -19.5000   1.0000  13.5000 Du        
   4185 ****       -19.5000   1.0000  13.7500 Du        
   4186 ****       -19.5000   1.0000  14.0000 Du        
   4187 ****       -19.5000   1.0000  14.2500 Du        
   4188 ****       -19.5000   1.0000  14.5000 Du        
   4189 ****       -19.5000   1.0000  14.7500 Du        
   4190 ****       -19.5000   1.0000  15.0000 Du        
   4191 ****       -19.5000   1.0000  15.2500 Du        
   4192 ****       -19.5000   1.0000  15.5000 Du        
   4193 ****       -19.5000   1.0000  15.7500 Du        
   4194 ****       -19.5000   1.0000  16.0000 Du        
   4195 ****       -19.5000   1.0000  16.2500 Du        
   4196 ****       -19.5000   1.2500  13.5000 Du        
   4197 ****       -19.5000   1.2500  13.7500 Du        
   4198 ****       -19.5000   1.2500  14.0000 Du        
   4199 ****       -19.5000   1.2500  14.2500 Du        
   4200 ****       -19.5000   1.2500  14.5000 Du        
   4201 ****       -19.5000   1.2500  14.7500 Du        
   4202 ****       -19.5000   1.2500  15.0000 Du        
   4203 ****       -19.5000   1.2500  15.2500 Du        
   4204 ****       -19.5000   1.2500  15.5000 Du        
   4205 ****       -19.5000   1.2500  15.7500 Du        
   4206 ****       -19.5000   1.2500  16.0000 Du        
   4207 ****       -19.5000   1.5000  13.5000 Du        
   4208 ****       -19.5000   1.5000  13.7500 Du        
   4209 ****       -19.5000   1.5000  14.0000 Du        
   4210 ****       -19.5000   1.5000  14.2500 Du        
   4211 ****       -19.5000   1.5000  14.5000 Du        
   4212 ****       -19.5000   1.5000  14.7500 Du        
   4213 ****       -19.5000   1.7500  13.7500 Du        
   4214 ****       -19.5000   1.7500  14.0000 Du        
   4215 ****       -19.5000   7.2500  33.0000 Du        
   4216 ****       -19.5000   7.5000  33.0000 Du        
   4217 ****       -19.5000   7.5000  33.2500 Du        
   4218 ****       -19.2500  -0.5000  14.5000 Du        
   4219 ****       -19.2500  -0.5000  14.7500 Du        
   4220 ****       -19.2500  -0.5000  15.0000 Du        
   4221 ****       -19.2500  -0.5000  15.2500 Du        
   4222 ****       -19.2500  -0.5000  15.5000 Du        
   4223 ****       -19.2500  -0.5000  15.7500 Du        
   4224 ****       -19.2500  -0.5000  16.0000 Du        
   4225 ****       -19.2500  -0.2500  13.7500 Du        
   4226 ****       -19.2500  -0.2500  14.0000 Du        
   4227 ****       -19.2500  -0.2500  14.2500 Du        
   4228 ****       -19.2500  -0.2500  14.5000 Du        
   4229 ****       -19.2500  -0.2500  14.7500 Du        
   4230 ****       -19.2500  -0.2500  15.0000 Du        
   4231 ****       -19.2500  -0.2500  15.2500 Du        
   4232 ****       -19.2500  -0.2500  15.5000 Du        
   4233 ****       -19.2500  -0.2500  15.7500 Du        
   4234 ****       -19.2500  -0.2500  16.0000 Du        
   4235 ****       -19.2500  -0.2500  16.2500 Du        
   4236 ****       -19.2500   0.0000  13.7500 Du        
   4237 ****       -19.2500   0.0000  14.0000 Du        
   4238 ****       -19.2500   0.0000  14.2500 Du        
   4239 ****       -19.2500   0.0000  14.5000 Du        
   4240 ****       -19.2500   0.0000  14.7500 Du        
   4241 ****       -19.2500   0.0000  15.0000 Du        
   4242 ****       -19.2500   0.0000  15.2500 Du        
   4243 ****       -19.2500   0.0000  15.5000 Du        
   4244 ****       -19.2500   0.0000  15.7500 Du        
   4245 ****       -19.2500   0.0000  16.0000 Du        
   4246 ****       -19.2500   0.0000  16.2500 Du        
   4247 ****       -19.2500   0.2500  13.5000 Du        
   4248 ****       -19.2500   0.2500  13.7500 Du        
   4249 ****       -19.2500   0.2500  14.0000 Du        
   4250 ****       -19.2500   0.2500  14.2500 Du        
   4251 ****       -19.2500   0.2500  14.5000 Du        
   4252 ****       -19.2500   0.2500  14.7500 Du        
   4253 ****       -19.2500   0.2500  15.0000 Du        
   4254 ****       -19.2500   0.2500  15.2500 Du        
   4255 ****       -19.2500   0.2500  15.5000 Du        
   4256 ****       -19.2500   0.2500  15.7500 Du        
   4257 ****       -19.2500   0.2500  16.0000 Du        
   4258 ****       -19.2500   0.2500  16.2500 Du        
   4259 ****       -19.2500   0.5000  13.5000 Du        
   4260 ****       -19.2500   0.5000  13.7500 Du        
   4261 ****       -19.2500   0.5000  14.0000 Du        
   4262 ****       -19.2500   0.5000  14.2500 Du        
   4263 ****       -19.2500   0.5000  14.5000 Du        
   4264 ****       -19.2500   0.5000  14.7500 Du        
   4265 ****       -19.2500   0.5000  15.0000 Du        
   4266 ****       -19.2500   0.5000  15.2500 Du        
   4267 ****       -19.2500   0.5000  15.5000 Du        
   4268 ****       -19.2500   0.5000  15.7500 Du        
   4269 ****       -19.2500   0.5000  16.0000 Du        
   4270 ****       -19.2500   0.5000  16.2500 Du        
   4271 ****       -19.2500   0.7500  13.5000 Du        
   4272 ****       -19.2500   0.7500  13.7500 Du        
   4273 ****       -19.2500   0.7500  14.0000 Du        
   4274 ****       -19.2500   0.7500  14.2500 Du        
   4275 ****       -19.2500   0.7500  14.5000 Du        
   4276 ****       -19.2500   0.7500  14.7500 Du        
   4277 ****       -19.2500   0.7500  15.0000 Du        
   4278 ****       -19.2500   0.7500  15.2500 Du        
   4279 ****       -19.2500   0.7500  15.5000 Du        
   4280 ****       -19.2500   0.7500  15.7500 Du        
   4281 ****       -19.2500   0.7500  16.0000 Du        
   4282 ****       -19.2500   0.7500  16.2500 Du        
   4283 ****       -19.2500   1.0000  13.5000 Du        
   4284 ****       -19.2500   1.0000  13.7500 Du        
   4285 ****       -19.2500   1.0000  14.0000 Du        
   4286 ****       -19.2500   1.0000  14.2500 Du        
   4287 ****       -19.2500   1.0000  14.5000 Du        
   4288 ****       -19.2500   1.0000  14.7500 Du        
   4289 ****       -19.2500   1.0000  15.0000 Du        
   4290 ****       -19.2500   1.0000  15.2500 Du        
   4291 ****       -19.2500   1.0000  15.5000 Du        
   4292 ****       -19.2500   1.0000  15.7500 Du        
   4293 ****       -19.2500   1.0000  16.0000 Du        
   4294 ****       -19.2500   1.0000  16.2500 Du        
   4295 ****       -19.2500   1.2500  13.5000 Du        
   4296 ****       -19.2500   1.2500  13.7500 Du        
   4297 ****       -19.2500   1.2500  14.0000 Du        
   4298 ****       -19.2500   1.2500  14.2500 Du        
   4299 ****       -19.2500   1.2500  14.5000 Du        
   4300 ****       -19.2500   1.2500  14.7500 Du        
   4301 ****       -19.2500   1.2500  15.0000 Du        
   4302 ****       -19.2500   1.2500  15.2500 Du        
   4303 ****       -19.2500   1.2500  15.5000 Du        
   4304 ****       -19.2500   1.2500  15.7500 Du        
   4305 ****       -19.2500   1.2500  16.0000 Du        
   4306 ****       -19.2500   1.5000  13.5000 Du        
   4307 ****       -19.2500   1.5000  13.7500 Du        
   4308 ****       -19.2500   1.5000  14.0000 Du        
   4309 ****       -19.2500   1.5000  14.2500 Du        
   4310 ****       -19.2500   1.5000  14.5000 Du        
   4311 ****       -19.2500   1.5000  14.7500 Du        
   4312 ****       -19.2500   1.5000  15.0000 Du        
   4313 ****       -19.2500   1.5000  15.2500 Du        
   4314 ****       -19.2500   1.5000  15.5000 Du        
   4315 ****       -19.2500   1.7500  13.7500 Du        
   4316 ****       -19.2500   1.7500  14.0000 Du        
   4317 ****       -19.2500   1.7500  14.2500 Du        
   4318 ****       -19.2500   7.7500  33.2500 Du        
   4319 ****       -19.2500   8.0000  33.5000 Du        
   4320 ****       -19.2500   8.0000  33.7500 Du        
   4321 ****       -19.0000  -0.5000  15.7500 Du        
   4322 ****       -19.0000  -0.5000  16.0000 Du        
   4323 ****       -19.0000  -0.2500  15.0000 Du        
   4324 ****       -19.0000  -0.2500  15.2500 Du        
   4325 ****       -19.0000  -0.2500  15.5000 Du        
   4326 ****       -19.0000  -0.2500  15.7500 Du        
   4327 ****       -19.0000  -0.2500  16.0000 Du        
   4328 ****       -19.0000  -0.2500  16.2500 Du        
   4329 ****       -19.0000   0.0000  14.0000 Du        
   4330 ****       -19.0000   0.0000  14.2500 Du        
   4331 ****       -19.0000   0.0000  14.5000 Du        
   4332 ****       -19.0000   0.0000  14.7500 Du        
   4333 ****       -19.0000   0.0000  15.0000 Du        
   4334 ****       -19.0000   0.0000  15.2500 Du        
   4335 ****       -19.0000   0.0000  15.5000 Du        
   4336 ****       -19.0000   0.0000  15.7500 Du        
   4337 ****       -19.0000   0.0000  16.0000 Du        
   4338 ****       -19.0000   0.0000  16.2500 Du        
   4339 ****       -19.0000   0.2500  13.7500 Du        
   4340 ****       -19.0000   0.2500  14.0000 Du        
   4341 ****       -19.0000   0.2500  14.2500 Du        
   4342 ****       -19.0000   0.2500  14.5000 Du        
   4343 ****       -19.0000   0.2500  14.7500 Du        
   4344 ****       -19.0000   0.2500  15.0000 Du        
   4345 ****       -19.0000   0.2500  15.2500 Du        
   4346 ****       -19.0000   0.2500  15.5000 Du        
   4347 ****       -19.0000   0.2500  15.7500 Du        
   4348 ****       -19.0000   0.2500  16.0000 Du        
   4349 ****       -19.0000   0.2500  16.2500 Du        
   4350 ****       -19.0000   0.5000  13.7500 Du        
   4351 ****       -19.0000   0.5000  14.0000 Du        
   4352 ****       -19.0000   0.5000  14.2500 Du        
   4353 ****       -19.0000   0.5000  14.5000 Du        
   4354 ****       -19.0000   0.5000  14.7500 Du        
   4355 ****       -19.0000   0.5000  15.0000 Du        
   4356 ****       -19.0000   0.5000  15.2500 Du        
   4357 ****       -19.0000   0.5000  15.5000 Du        
   4358 ****       -19.0000   0.5000  15.7500 Du        
   4359 ****       -19.0000   0.5000  16.0000 Du        
   4360 ****       -19.0000   0.5000  16.2500 Du        
   4361 ****       -19.0000   0.7500  13.5000 Du        
   4362 ****       -19.0000   0.7500  13.7500 Du        
   4363 ****       -19.0000   0.7500  14.0000 Du        
   4364 ****       -19.0000   0.7500  14.2500 Du        
   4365 ****       -19.0000   0.7500  14.5000 Du        
   4366 ****       -19.0000   0.7500  14.7500 Du        
   4367 ****       -19.0000   0.7500  15.0000 Du        
   4368 ****       -19.0000   0.7500  15.2500 Du        
   4369 ****       -19.0000   0.7500  15.5000 Du        
   4370 ****       -19.0000   0.7500  15.7500 Du        
   4371 ****       -19.0000   0.7500  16.0000 Du        
   4372 ****       -19.0000   1.0000  13.5000 Du        
   4373 ****       -19.0000   1.0000  13.7500 Du        
   4374 ****       -19.0000   1.0000  14.0000 Du        
   4375 ****       -19.0000   1.0000  14.2500 Du        
   4376 ****       -19.0000   1.0000  14.5000 Du        
   4377 ****       -19.0000   1.0000  14.7500 Du        
   4378 ****       -19.0000   1.0000  15.0000 Du        
   4379 ****       -19.0000   1.0000  15.2500 Du        
   4380 ****       -19.0000   1.0000  15.5000 Du        
   4381 ****       -19.0000   1.0000  15.7500 Du        
   4382 ****       -19.0000   1.0000  16.0000 Du        
   4383 ****       -19.0000   1.2500  13.2500 Du        
   4384 ****       -19.0000   1.2500  13.5000 Du        
   4385 ****       -19.0000   1.2500  13.7500 Du        
   4386 ****       -19.0000   1.2500  14.0000 Du        
   4387 ****       -19.0000   1.2500  14.2500 Du        
   4388 ****       -19.0000   1.2500  14.5000 Du        
   4389 ****       -19.0000   1.2500  14.7500 Du        
   4390 ****       -19.0000   1.2500  15.0000 Du        
   4391 ****       -19.0000   1.2500  15.2500 Du        
   4392 ****       -19.0000   1.2500  15.5000 Du        
   4393 ****       -19.0000   1.2500  15.7500 Du        
   4394 ****       -19.0000   1.2500  16.0000 Du        
   4395 ****       -19.0000   1.5000  13.7500 Du        
   4396 ****       -19.0000   1.5000  14.0000 Du        
   4397 ****       -19.0000   1.5000  14.2500 Du        
   4398 ****       -19.0000   1.5000  14.5000 Du        
   4399 ****       -19.0000   1.5000  14.7500 Du        
   4400 ****       -19.0000   1.5000  15.0000 Du        
   4401 ****       -19.0000   1.5000  15.2500 Du        
   4402 ****       -19.0000   1.5000  15.5000 Du        
   4403 ****       -19.0000   1.5000  15.7500 Du        
   4404 ****       -19.0000   1.7500  13.7500 Du        
   4405 ****       -19.0000   1.7500  14.0000 Du        
   4406 ****       -19.0000   1.7500  14.2500 Du        
   4407 ****       -19.0000   7.5000  13.0000 Du        
   4408 ****       -19.0000   7.5000  13.2500 Du        
   4409 ****       -19.0000   7.7500  13.2500 Du        
   4410 ****       -19.0000   8.0000  33.5000 Du        
   4411 ****       -19.0000   8.0000  33.7500 Du        
   4412 ****       -19.0000   8.0000  34.0000 Du        
   4413 ****       -19.0000   8.2500  33.5000 Du        
   4414 ****       -19.0000   8.2500  33.7500 Du        
   4415 ****       -19.0000   8.2500  34.0000 Du        
   4416 ****       -19.0000   8.2500  34.2500 Du        
   4417 ****       -18.7500  -0.2500  15.7500 Du        
   4418 ****       -18.7500  -0.2500  16.0000 Du        
   4419 ****       -18.7500   0.0000  15.2500 Du        
   4420 ****       -18.7500   0.0000  15.5000 Du        
   4421 ****       -18.7500   0.0000  15.7500 Du        
   4422 ****       -18.7500   0.0000  16.0000 Du        
   4423 ****       -18.7500   0.2500  15.0000 Du        
   4424 ****       -18.7500   0.2500  15.2500 Du        
   4425 ****       -18.7500   0.2500  15.5000 Du        
   4426 ****       -18.7500   0.2500  15.7500 Du        
   4427 ****       -18.7500   0.2500  16.0000 Du        
   4428 ****       -18.7500   0.5000  14.5000 Du        
   4429 ****       -18.7500   0.5000  14.7500 Du        
   4430 ****       -18.7500   0.5000  15.0000 Du        
   4431 ****       -18.7500   0.5000  15.2500 Du        
   4432 ****       -18.7500   0.5000  15.5000 Du        
   4433 ****       -18.7500   0.5000  15.7500 Du        
   4434 ****       -18.7500   0.5000  16.0000 Du        
   4435 ****       -18.7500   0.7500  13.5000 Du        
   4436 ****       -18.7500   0.7500  13.7500 Du        
   4437 ****       -18.7500   0.7500  14.0000 Du        
   4438 ****       -18.7500   0.7500  14.2500 Du        
   4439 ****       -18.7500   0.7500  14.5000 Du        
   4440 ****       -18.7500   0.7500  14.7500 Du        
   4441 ****       -18.7500   0.7500  15.0000 Du        
   4442 ****       -18.7500   0.7500  15.2500 Du        
   4443 ****       -18.7500   0.7500  15.5000 Du        
   4444 ****       -18.7500   0.7500  15.7500 Du        
   4445 ****       -18.7500   0.7500  16.0000 Du        
   4446 ****       -18.7500   1.0000  13.5000 Du        
   4447 ****       -18.7500   1.0000  13.7500 Du        
   4448 ****       -18.7500   1.0000  14.0000 Du        
   4449 ****       -18.7500   1.0000  14.2500 Du        
   4450 ****       -18.7500   1.0000  14.5000 Du        
   4451 ****       -18.7500   1.0000  14.7500 Du        
   4452 ****       -18.7500   1.0000  15.0000 Du        
   4453 ****       -18.7500   1.0000  15.2500 Du        
   4454 ****       -18.7500   1.0000  15.5000 Du        
   4455 ****       -18.7500   1.0000  15.7500 Du        
   4456 ****       -18.7500   1.0000  16.0000 Du        
   4457 ****       -18.7500   1.2500  13.5000 Du        
   4458 ****       -18.7500   1.2500  13.7500 Du        
   4459 ****       -18.7500   1.2500  14.0000 Du        
   4460 ****       -18.7500   1.2500  14.2500 Du        
   4461 ****       -18.7500   1.2500  14.5000 Du        
   4462 ****       -18.7500   1.2500  14.7500 Du        
   4463 ****       -18.7500   1.2500  15.0000 Du        
   4464 ****       -18.7500   1.2500  15.2500 Du        
   4465 ****       -18.7500   1.2500  15.5000 Du        
   4466 ****       -18.7500   1.2500  15.7500 Du        
   4467 ****       -18.7500   1.5000  14.0000 Du        
   4468 ****       -18.7500   1.5000  14.2500 Du        
   4469 ****       -18.7500   1.5000  14.5000 Du        
   4470 ****       -18.7500   1.5000  14.7500 Du        
   4471 ****       -18.7500   1.5000  15.0000 Du        
   4472 ****       -18.7500   1.5000  15.2500 Du        
   4473 ****       -18.7500   1.5000  15.5000 Du        
   4474 ****       -18.7500   1.5000  15.7500 Du        
   4475 ****       -18.7500   1.7500  14.2500 Du        
   4476 ****       -18.7500   1.7500  14.7500 Du        
   4477 ****       -18.7500   1.7500  15.0000 Du        
   4478 ****       -18.7500   7.5000  13.0000 Du        
   4479 ****       -18.7500   7.5000  13.2500 Du        
   4480 ****       -18.7500   7.5000  13.5000 Du        
   4481 ****       -18.7500   7.5000  13.7500 Du        
   4482 ****       -18.7500   7.7500  13.0000 Du        
   4483 ****       -18.7500   7.7500  13.2500 Du        
   4484 ****       -18.7500   7.7500  13.5000 Du        
   4485 ****       -18.7500   7.7500  13.7500 Du        
   4486 ****       -18.7500   8.0000  13.0000 Du        
   4487 ****       -18.7500   8.0000  13.2500 Du        
   4488 ****       -18.7500   8.0000  13.5000 Du        
   4489 ****       -18.7500   8.0000  13.7500 Du        
   4490 ****       -18.7500   8.0000  14.0000 Du        
   4491 ****       -18.7500   8.0000  33.5000 Du        
   4492 ****       -18.7500   8.0000  33.7500 Du        
   4493 ****       -18.7500   8.2500  13.7500 Du        
   4494 ****       -18.7500   8.2500  14.0000 Du        
   4495 ****       -18.7500   8.2500  33.5000 Du        
   4496 ****       -18.7500   8.2500  33.7500 Du        
   4497 ****       -18.7500   8.2500  34.0000 Du        
   4498 ****       -18.7500   8.2500  34.2500 Du        
   4499 ****       -18.7500   8.5000  33.7500 Du        
   4500 ****       -18.7500   8.5000  34.0000 Du        
   4501 ****       -18.7500   8.5000  34.2500 Du        
   4502 ****       -18.7500   8.5000  34.5000 Du        
   4503 ****       -18.7500   8.7500  34.0000 Du        
   4504 ****       -18.7500   8.7500  34.2500 Du        
   4505 ****       -18.5000   0.2500  15.7500 Du        
   4506 ****       -18.5000   0.5000  15.5000 Du        
   4507 ****       -18.5000   0.5000  15.7500 Du        
   4508 ****       -18.5000   0.7500  15.0000 Du        
   4509 ****       -18.5000   0.7500  15.2500 Du        
   4510 ****       -18.5000   0.7500  15.5000 Du        
   4511 ****       -18.5000   0.7500  15.7500 Du        
   4512 ****       -18.5000   1.0000  14.5000 Du        
   4513 ****       -18.5000   1.0000  14.7500 Du        
   4514 ****       -18.5000   1.0000  15.0000 Du        
   4515 ****       -18.5000   1.0000  15.2500 Du        
   4516 ****       -18.5000   1.0000  15.5000 Du        
   4517 ****       -18.5000   1.0000  15.7500 Du        
   4518 ****       -18.5000   1.2500  14.0000 Du        
   4519 ****       -18.5000   1.2500  14.2500 Du        
   4520 ****       -18.5000   1.2500  14.5000 Du        
   4521 ****       -18.5000   1.2500  14.7500 Du        
   4522 ****       -18.5000   1.2500  15.0000 Du        
   4523 ****       -18.5000   1.2500  15.2500 Du        
   4524 ****       -18.5000   1.2500  15.5000 Du        
   4525 ****       -18.5000   1.2500  15.7500 Du        
   4526 ****       -18.5000   1.5000  14.7500 Du        
   4527 ****       -18.5000   1.5000  15.0000 Du        
   4528 ****       -18.5000   1.5000  15.2500 Du        
   4529 ****       -18.5000   1.5000  15.5000 Du        
   4530 ****       -18.5000   1.7500  14.7500 Du        
   4531 ****       -18.5000   1.7500  15.0000 Du        
   4532 ****       -18.5000   7.5000  13.2500 Du        
   4533 ****       -18.5000   7.5000  13.5000 Du        
   4534 ****       -18.5000   7.5000  13.7500 Du        
   4535 ****       -18.5000   7.5000  14.0000 Du        
   4536 ****       -18.5000   7.5000  14.2500 Du        
   4537 ****       -18.5000   7.5000  14.5000 Du        
   4538 ****       -18.5000   7.7500  13.0000 Du        
   4539 ****       -18.5000   7.7500  13.2500 Du        
   4540 ****       -18.5000   7.7500  13.5000 Du        
   4541 ****       -18.5000   7.7500  13.7500 Du        
   4542 ****       -18.5000   7.7500  14.0000 Du        
   4543 ****       -18.5000   7.7500  14.2500 Du        
   4544 ****       -18.5000   7.7500  14.5000 Du        
   4545 ****       -18.5000   8.0000  13.0000 Du        
   4546 ****       -18.5000   8.0000  13.2500 Du        
   4547 ****       -18.5000   8.0000  13.5000 Du        
   4548 ****       -18.5000   8.0000  13.7500 Du        
   4549 ****       -18.5000   8.0000  14.0000 Du        
   4550 ****       -18.5000   8.0000  14.2500 Du        
   4551 ****       -18.5000   8.0000  14.5000 Du        
   4552 ****       -18.5000   8.2500  13.5000 Du        
   4553 ****       -18.5000   8.2500  13.7500 Du        
   4554 ****       -18.5000   8.2500  14.0000 Du        
   4555 ****       -18.5000   8.2500  14.2500 Du        
   4556 ****       -18.5000   8.2500  14.5000 Du        
   4557 ****       -18.5000   8.2500  33.7500 Du        
   4558 ****       -18.5000   8.2500  34.0000 Du        
   4559 ****       -18.5000   8.2500  34.2500 Du        
   4560 ****       -18.5000   8.5000  13.7500 Du        
   4561 ****       -18.5000   8.5000  14.0000 Du        
   4562 ****       -18.5000   8.5000  14.2500 Du        
   4563 ****       -18.5000   8.5000  14.5000 Du        
   4564 ****       -18.5000   8.5000  33.7500 Du        
   4565 ****       -18.5000   8.5000  34.0000 Du        
   4566 ****       -18.5000   8.5000  34.2500 Du        
   4567 ****       -18.5000   8.5000  34.5000 Du        
   4568 ****       -18.5000   8.7500  14.0000 Du        
   4569 ****       -18.5000   8.7500  14.2500 Du        
   4570 ****       -18.5000   8.7500  14.5000 Du        
   4571 ****       -18.5000   8.7500  34.0000 Du        
   4572 ****       -18.5000   8.7500  34.2500 Du        
   4573 ****       -18.5000   8.7500  34.5000 Du        
   4574 ****       -18.5000   8.7500  34.7500 Du        
   4575 ****       -18.2500   0.7500  15.5000 Du        
   4576 ****       -18.2500   1.0000  15.0000 Du        
   4577 ****       -18.2500   1.0000  15.2500 Du        
   4578 ****       -18.2500   1.0000  15.5000 Du        
   4579 ****       -18.2500   1.2500  14.7500 Du        
   4580 ****       -18.2500   1.2500  15.0000 Du        
   4581 ****       -18.2500   1.2500  15.2500 Du        
   4582 ****       -18.2500   1.2500  15.5000 Du        
   4583 ****       -18.2500   1.5000  15.0000 Du        
   4584 ****       -18.2500   1.5000  15.2500 Du        
   4585 ****       -18.2500   1.5000  15.5000 Du        
   4586 ****       -18.2500   1.7500  14.7500 Du        
   4587 ****       -18.2500   1.7500  15.0000 Du        
   4588 ****       -18.2500   1.7500  15.2500 Du        
   4589 ****       -18.2500   1.7500  15.5000 Du        
   4590 ****       -18.2500   7.0000  15.0000 Du        
   4591 ****       -18.2500   7.0000  15.5000 Du        
   4592 ****       -18.2500   7.0000  15.7500 Du        
   4593 ****       -18.2500   7.2500  14.0000 Du        
   4594 ****       -18.2500   7.2500  14.2500 Du        
   4595 ****       -18.2500   7.2500  14.5000 Du        
   4596 ****       -18.2500   7.2500  14.7500 Du        
   4597 ****       -18.2500   7.2500  15.0000 Du        
   4598 ****       -18.2500   7.2500  15.2500 Du        
   4599 ****       -18.2500   7.2500  15.5000 Du        
   4600 ****       -18.2500   7.5000  13.2500 Du        
   4601 ****       -18.2500   7.5000  13.5000 Du        
   4602 ****       -18.2500   7.5000  13.7500 Du        
   4603 ****       -18.2500   7.5000  14.0000 Du        
   4604 ****       -18.2500   7.5000  14.2500 Du        
   4605 ****       -18.2500   7.5000  14.5000 Du        
   4606 ****       -18.2500   7.5000  14.7500 Du        
   4607 ****       -18.2500   7.5000  15.0000 Du        
   4608 ****       -18.2500   7.5000  15.2500 Du        
   4609 ****       -18.2500   7.5000  15.5000 Du        
   4610 ****       -18.2500   7.7500  13.0000 Du        
   4611 ****       -18.2500   7.7500  13.2500 Du        
   4612 ****       -18.2500   7.7500  13.5000 Du        
   4613 ****       -18.2500   7.7500  13.7500 Du        
   4614 ****       -18.2500   7.7500  14.0000 Du        
   4615 ****       -18.2500   7.7500  14.2500 Du        
   4616 ****       -18.2500   7.7500  14.5000 Du        
   4617 ****       -18.2500   7.7500  14.7500 Du        
   4618 ****       -18.2500   7.7500  15.0000 Du        
   4619 ****       -18.2500   7.7500  15.2500 Du        
   4620 ****       -18.2500   8.0000  13.0000 Du        
   4621 ****       -18.2500   8.0000  13.2500 Du        
   4622 ****       -18.2500   8.0000  13.5000 Du        
   4623 ****       -18.2500   8.0000  13.7500 Du        
   4624 ****       -18.2500   8.0000  14.0000 Du        
   4625 ****       -18.2500   8.0000  14.2500 Du        
   4626 ****       -18.2500   8.0000  14.5000 Du        
   4627 ****       -18.2500   8.0000  14.7500 Du        
   4628 ****       -18.2500   8.0000  15.0000 Du        
   4629 ****       -18.2500   8.0000  15.2500 Du        
   4630 ****       -18.2500   8.2500  13.2500 Du        
   4631 ****       -18.2500   8.2500  13.5000 Du        
   4632 ****       -18.2500   8.2500  13.7500 Du        
   4633 ****       -18.2500   8.2500  14.0000 Du        
   4634 ****       -18.2500   8.2500  14.2500 Du        
   4635 ****       -18.2500   8.2500  14.5000 Du        
   4636 ****       -18.2500   8.2500  14.7500 Du        
   4637 ****       -18.2500   8.2500  15.0000 Du        
   4638 ****       -18.2500   8.2500  33.7500 Du        
   4639 ****       -18.2500   8.2500  34.0000 Du        
   4640 ****       -18.2500   8.5000  13.5000 Du        
   4641 ****       -18.2500   8.5000  13.7500 Du        
   4642 ****       -18.2500   8.5000  14.0000 Du        
   4643 ****       -18.2500   8.5000  14.2500 Du        
   4644 ****       -18.2500   8.5000  14.5000 Du        
   4645 ****       -18.2500   8.5000  14.7500 Du        
   4646 ****       -18.2500   8.5000  15.0000 Du        
   4647 ****       -18.2500   8.5000  33.7500 Du        
   4648 ****       -18.2500   8.5000  34.0000 Du        
   4649 ****       -18.2500   8.5000  34.2500 Du        
   4650 ****       -18.2500   8.5000  34.5000 Du        
   4651 ****       -18.2500   8.7500  14.0000 Du        
   4652 ****       -18.2500   8.7500  14.2500 Du        
   4653 ****       -18.2500   8.7500  14.5000 Du        
   4654 ****       -18.2500   8.7500  14.7500 Du        
   4655 ****       -18.2500   8.7500  33.7500 Du        
   4656 ****       -18.2500   8.7500  34.0000 Du        
   4657 ****       -18.2500   8.7500  34.2500 Du        
   4658 ****       -18.2500   8.7500  34.5000 Du        
   4659 ****       -18.2500   8.7500  34.7500 Du        
   4660 ****       -18.2500   9.0000  34.0000 Du        
   4661 ****       -18.2500   9.0000  34.2500 Du        
   4662 ****       -18.2500   9.0000  34.5000 Du        
   4663 ****       -18.2500   9.0000  34.7500 Du        
   4664 ****       -18.0000   1.2500  15.0000 Du        
   4665 ****       -18.0000   1.2500  15.2500 Du        
   4666 ****       -18.0000   1.5000  15.0000 Du        
   4667 ****       -18.0000   1.5000  15.2500 Du        
   4668 ****       -18.0000   1.5000  15.5000 Du        
   4669 ****       -18.0000   1.7500  15.0000 Du        
   4670 ****       -18.0000   1.7500  15.2500 Du        
   4671 ****       -18.0000   1.7500  15.5000 Du        
   4672 ****       -18.0000   6.5000  15.7500 Du        
   4673 ****       -18.0000   6.7500  15.0000 Du        
   4674 ****       -18.0000   6.7500  15.2500 Du        
   4675 ****       -18.0000   6.7500  15.5000 Du        
   4676 ****       -18.0000   6.7500  15.7500 Du        
   4677 ****       -18.0000   6.7500  16.0000 Du        
   4678 ****       -18.0000   6.7500  16.2500 Du        
   4679 ****       -18.0000   7.0000  14.5000 Du        
   4680 ****       -18.0000   7.0000  14.7500 Du        
   4681 ****       -18.0000   7.0000  15.0000 Du        
   4682 ****       -18.0000   7.0000  15.2500 Du        
   4683 ****       -18.0000   7.0000  15.5000 Du        
   4684 ****       -18.0000   7.0000  15.7500 Du        
   4685 ****       -18.0000   7.0000  16.0000 Du        
   4686 ****       -18.0000   7.0000  16.2500 Du        
   4687 ****       -18.0000   7.2500  14.0000 Du        
   4688 ****       -18.0000   7.2500  14.2500 Du        
   4689 ****       -18.0000   7.2500  14.5000 Du        
   4690 ****       -18.0000   7.2500  14.7500 Du        
   4691 ****       -18.0000   7.2500  15.0000 Du        
   4692 ****       -18.0000   7.2500  15.2500 Du        
   4693 ****       -18.0000   7.2500  15.5000 Du        
   4694 ****       -18.0000   7.2500  15.7500 Du        
   4695 ****       -18.0000   7.2500  16.0000 Du        
   4696 ****       -18.0000   7.5000  13.5000 Du        
   4697 ****       -18.0000   7.5000  13.7500 Du        
   4698 ****       -18.0000   7.5000  14.0000 Du        
   4699 ****       -18.0000   7.5000  14.2500 Du        
   4700 ****       -18.0000   7.5000  14.5000 Du        
   4701 ****       -18.0000   7.5000  14.7500 Du        
   4702 ****       -18.0000   7.5000  15.0000 Du        
   4703 ****       -18.0000   7.5000  15.2500 Du        
   4704 ****       -18.0000   7.5000  15.5000 Du        
   4705 ****       -18.0000   7.5000  15.7500 Du        
   4706 ****       -18.0000   7.7500  13.2500 Du        
   4707 ****       -18.0000   7.7500  13.5000 Du        
   4708 ****       -18.0000   7.7500  13.7500 Du        
   4709 ****       -18.0000   7.7500  14.0000 Du        
   4710 ****       -18.0000   7.7500  14.2500 Du        
   4711 ****       -18.0000   7.7500  14.5000 Du        
   4712 ****       -18.0000   7.7500  14.7500 Du        
   4713 ****       -18.0000   7.7500  15.0000 Du        
   4714 ****       -18.0000   7.7500  15.2500 Du        
   4715 ****       -18.0000   7.7500  15.5000 Du        
   4716 ****       -18.0000   7.7500  15.7500 Du        
   4717 ****       -18.0000   8.0000  13.0000 Du        
   4718 ****       -18.0000   8.0000  13.2500 Du        
   4719 ****       -18.0000   8.0000  13.5000 Du        
   4720 ****       -18.0000   8.0000  13.7500 Du        
   4721 ****       -18.0000   8.0000  14.0000 Du        
   4722 ****       -18.0000   8.0000  14.2500 Du        
   4723 ****       -18.0000   8.0000  14.5000 Du        
   4724 ****       -18.0000   8.0000  14.7500 Du        
   4725 ****       -18.0000   8.0000  15.0000 Du        
   4726 ****       -18.0000   8.0000  15.2500 Du        
   4727 ****       -18.0000   8.0000  15.5000 Du        
   4728 ****       -18.0000   8.2500  13.2500 Du        
   4729 ****       -18.0000   8.2500  13.5000 Du        
   4730 ****       -18.0000   8.2500  13.7500 Du        
   4731 ****       -18.0000   8.2500  14.0000 Du        
   4732 ****       -18.0000   8.2500  14.2500 Du        
   4733 ****       -18.0000   8.2500  14.5000 Du        
   4734 ****       -18.0000   8.2500  14.7500 Du        
   4735 ****       -18.0000   8.2500  15.0000 Du        
   4736 ****       -18.0000   8.2500  15.2500 Du        
   4737 ****       -18.0000   8.5000  13.5000 Du        
   4738 ****       -18.0000   8.5000  13.7500 Du        
   4739 ****       -18.0000   8.5000  14.0000 Du        
   4740 ****       -18.0000   8.5000  14.2500 Du        
   4741 ****       -18.0000   8.5000  14.5000 Du        
   4742 ****       -18.0000   8.5000  14.7500 Du        
   4743 ****       -18.0000   8.5000  15.0000 Du        
   4744 ****       -18.0000   8.5000  33.7500 Du        
   4745 ****       -18.0000   8.5000  34.0000 Du        
   4746 ****       -18.0000   8.5000  34.2500 Du        
   4747 ****       -18.0000   8.5000  34.5000 Du        
   4748 ****       -18.0000   8.7500  14.0000 Du        
   4749 ****       -18.0000   8.7500  14.2500 Du        
   4750 ****       -18.0000   8.7500  14.5000 Du        
   4751 ****       -18.0000   8.7500  14.7500 Du        
   4752 ****       -18.0000   8.7500  33.7500 Du        
   4753 ****       -18.0000   8.7500  34.0000 Du        
   4754 ****       -18.0000   8.7500  34.2500 Du        
   4755 ****       -18.0000   8.7500  34.5000 Du        
   4756 ****       -18.0000   8.7500  34.7500 Du        
   4757 ****       -18.0000   9.0000  33.7500 Du        
   4758 ****       -18.0000   9.0000  34.0000 Du        
   4759 ****       -18.0000   9.0000  34.2500 Du        
   4760 ****       -18.0000   9.0000  34.5000 Du        
   4761 ****       -18.0000   9.0000  34.7500 Du        
   4762 ****       -18.0000   9.2500  34.0000 Du        
   4763 ****       -18.0000   9.2500  34.2500 Du        
   4764 ****       -18.0000   9.2500  34.5000 Du        
   4765 ****       -18.0000   9.2500  34.7500 Du        
   4766 ****       -17.7500   6.5000  15.5000 Du        
   4767 ****       -17.7500   6.5000  15.7500 Du        
   4768 ****       -17.7500   6.5000  16.0000 Du        
   4769 ****       -17.7500   6.5000  16.2500 Du        
   4770 ****       -17.7500   6.7500  14.7500 Du        
   4771 ****       -17.7500   6.7500  15.0000 Du        
   4772 ****       -17.7500   6.7500  15.2500 Du        
   4773 ****       -17.7500   6.7500  15.5000 Du        
   4774 ****       -17.7500   6.7500  15.7500 Du        
   4775 ****       -17.7500   6.7500  16.0000 Du        
   4776 ****       -17.7500   6.7500  16.2500 Du        
   4777 ****       -17.7500   7.0000  14.5000 Du        
   4778 ****       -17.7500   7.0000  14.7500 Du        
   4779 ****       -17.7500   7.0000  15.0000 Du        
   4780 ****       -17.7500   7.0000  15.2500 Du        
   4781 ****       -17.7500   7.0000  15.5000 Du        
   4782 ****       -17.7500   7.0000  15.7500 Du        
   4783 ****       -17.7500   7.0000  16.0000 Du        
   4784 ****       -17.7500   7.0000  16.2500 Du        
   4785 ****       -17.7500   7.2500  14.2500 Du        
   4786 ****       -17.7500   7.2500  14.5000 Du        
   4787 ****       -17.7500   7.2500  14.7500 Du        
   4788 ****       -17.7500   7.2500  15.0000 Du        
   4789 ****       -17.7500   7.2500  15.2500 Du        
   4790 ****       -17.7500   7.2500  15.5000 Du        
   4791 ****       -17.7500   7.2500  15.7500 Du        
   4792 ****       -17.7500   7.2500  16.0000 Du        
   4793 ****       -17.7500   7.5000  14.0000 Du        
   4794 ****       -17.7500   7.5000  14.2500 Du        
   4795 ****       -17.7500   7.5000  14.5000 Du        
   4796 ****       -17.7500   7.5000  14.7500 Du        
   4797 ****       -17.7500   7.5000  15.0000 Du        
   4798 ****       -17.7500   7.5000  15.2500 Du        
   4799 ****       -17.7500   7.5000  15.5000 Du        
   4800 ****       -17.7500   7.5000  15.7500 Du        
   4801 ****       -17.7500   7.5000  16.0000 Du        
   4802 ****       -17.7500   7.7500  13.5000 Du        
   4803 ****       -17.7500   7.7500  13.7500 Du        
   4804 ****       -17.7500   7.7500  14.0000 Du        
   4805 ****       -17.7500   7.7500  14.2500 Du        
   4806 ****       -17.7500   7.7500  14.5000 Du        
   4807 ****       -17.7500   7.7500  14.7500 Du        
   4808 ****       -17.7500   7.7500  15.0000 Du        
   4809 ****       -17.7500   7.7500  15.2500 Du        
   4810 ****       -17.7500   7.7500  15.5000 Du        
   4811 ****       -17.7500   7.7500  15.7500 Du        
   4812 ****       -17.7500   8.0000  13.5000 Du        
   4813 ****       -17.7500   8.0000  13.7500 Du        
   4814 ****       -17.7500   8.0000  14.0000 Du        
   4815 ****       -17.7500   8.0000  14.2500 Du        
   4816 ****       -17.7500   8.0000  14.5000 Du        
   4817 ****       -17.7500   8.0000  14.7500 Du        
   4818 ****       -17.7500   8.0000  15.0000 Du        
   4819 ****       -17.7500   8.0000  15.2500 Du        
   4820 ****       -17.7500   8.0000  15.5000 Du        
   4821 ****       -17.7500   8.2500  13.2500 Du        
   4822 ****       -17.7500   8.2500  13.5000 Du        
   4823 ****       -17.7500   8.2500  13.7500 Du        
   4824 ****       -17.7500   8.2500  14.0000 Du        
   4825 ****       -17.7500   8.2500  14.2500 Du        
   4826 ****       -17.7500   8.2500  14.5000 Du        
   4827 ****       -17.7500   8.2500  14.7500 Du        
   4828 ****       -17.7500   8.2500  15.0000 Du        
   4829 ****       -17.7500   8.2500  15.2500 Du        
   4830 ****       -17.7500   8.5000  13.5000 Du        
   4831 ****       -17.7500   8.5000  13.7500 Du        
   4832 ****       -17.7500   8.5000  14.0000 Du        
   4833 ****       -17.7500   8.5000  14.2500 Du        
   4834 ****       -17.7500   8.5000  14.5000 Du        
   4835 ****       -17.7500   8.5000  14.7500 Du        
   4836 ****       -17.7500   8.5000  34.0000 Du        
   4837 ****       -17.7500   8.5000  34.2500 Du        
   4838 ****       -17.7500   8.5000  34.5000 Du        
   4839 ****       -17.7500   8.7500  14.0000 Du        
   4840 ****       -17.7500   8.7500  14.2500 Du        
   4841 ****       -17.7500   8.7500  14.5000 Du        
   4842 ****       -17.7500   8.7500  34.0000 Du        
   4843 ****       -17.7500   8.7500  34.2500 Du        
   4844 ****       -17.7500   8.7500  34.5000 Du        
   4845 ****       -17.7500   8.7500  34.7500 Du        
   4846 ****       -17.7500   9.0000  34.0000 Du        
   4847 ****       -17.7500   9.0000  34.2500 Du        
   4848 ****       -17.7500   9.0000  34.5000 Du        
   4849 ****       -17.7500   9.0000  34.7500 Du        
   4850 ****       -17.7500   9.2500  34.0000 Du        
   4851 ****       -17.7500   9.2500  34.2500 Du        
   4852 ****       -17.7500   9.2500  34.5000 Du        
   4853 ****       -17.7500   9.2500  34.7500 Du        
   4854 ****       -17.5000   6.2500  15.7500 Du        
   4855 ****       -17.5000   6.2500  16.0000 Du        
   4856 ****       -17.5000   6.5000  15.5000 Du        
   4857 ****       -17.5000   6.5000  15.7500 Du        
   4858 ****       -17.5000   6.5000  16.0000 Du        
   4859 ****       -17.5000   6.5000  16.2500 Du        
   4860 ****       -17.5000   6.7500  15.0000 Du        
   4861 ****       -17.5000   6.7500  15.2500 Du        
   4862 ****       -17.5000   6.7500  15.5000 Du        
   4863 ****       -17.5000   6.7500  15.7500 Du        
   4864 ****       -17.5000   6.7500  16.0000 Du        
   4865 ****       -17.5000   6.7500  16.2500 Du        
   4866 ****       -17.5000   7.0000  14.7500 Du        
   4867 ****       -17.5000   7.0000  15.0000 Du        
   4868 ****       -17.5000   7.0000  15.2500 Du        
   4869 ****       -17.5000   7.0000  15.5000 Du        
   4870 ****       -17.5000   7.0000  15.7500 Du        
   4871 ****       -17.5000   7.0000  16.0000 Du        
   4872 ****       -17.5000   7.2500  14.5000 Du        
   4873 ****       -17.5000   7.2500  14.7500 Du        
   4874 ****       -17.5000   7.2500  15.0000 Du        
   4875 ****       -17.5000   7.2500  15.2500 Du        
   4876 ****       -17.5000   7.2500  15.5000 Du        
   4877 ****       -17.5000   7.2500  15.7500 Du        
   4878 ****       -17.5000   7.2500  16.0000 Du        
   4879 ****       -17.5000   7.5000  14.2500 Du        
   4880 ****       -17.5000   7.5000  14.5000 Du        
   4881 ****       -17.5000   7.5000  14.7500 Du        
   4882 ****       -17.5000   7.5000  15.0000 Du        
   4883 ****       -17.5000   7.5000  15.2500 Du        
   4884 ****       -17.5000   7.5000  15.5000 Du        
   4885 ****       -17.5000   7.5000  15.7500 Du        
   4886 ****       -17.5000   7.7500  14.0000 Du        
   4887 ****       -17.5000   7.7500  14.2500 Du        
   4888 ****       -17.5000   7.7500  14.5000 Du        
   4889 ****       -17.5000   7.7500  14.7500 Du        
   4890 ****       -17.5000   7.7500  15.0000 Du        
   4891 ****       -17.5000   7.7500  15.2500 Du        
   4892 ****       -17.5000   7.7500  15.5000 Du        
   4893 ****       -17.5000   8.0000  13.7500 Du        
   4894 ****       -17.5000   8.0000  14.0000 Du        
   4895 ****       -17.5000   8.0000  14.2500 Du        
   4896 ****       -17.5000   8.0000  14.5000 Du        
   4897 ****       -17.5000   8.0000  14.7500 Du        
   4898 ****       -17.5000   8.0000  15.0000 Du        
   4899 ****       -17.5000   8.0000  15.2500 Du        
   4900 ****       -17.5000   8.2500  13.7500 Du        
   4901 ****       -17.5000   8.2500  14.0000 Du        
   4902 ****       -17.5000   8.2500  14.2500 Du        
   4903 ****       -17.5000   8.2500  14.5000 Du        
   4904 ****       -17.5000   8.2500  14.7500 Du        
   4905 ****       -17.5000   8.2500  15.0000 Du        
   4906 ****       -17.5000   8.5000  13.7500 Du        
   4907 ****       -17.5000   8.5000  14.0000 Du        
   4908 ****       -17.5000   8.5000  14.2500 Du        
   4909 ****       -17.5000   8.5000  14.5000 Du        
   4910 ****       -17.5000   8.5000  14.7500 Du        
   4911 ****       -17.5000   8.7500  34.0000 Du        
   4912 ****       -17.2500   5.2500  23.7500 Du        
   4913 ****       -17.2500   6.0000  15.7500 Du        
   4914 ****       -17.2500   6.0000  16.0000 Du        
   4915 ****       -17.2500   6.2500  15.5000 Du        
   4916 ****       -17.2500   6.2500  15.7500 Du        
   4917 ****       -17.2500   6.2500  16.0000 Du        
   4918 ****       -17.2500   6.2500  16.2500 Du        
   4919 ****       -17.2500   6.5000  15.5000 Du        
   4920 ****       -17.2500   6.5000  15.7500 Du        
   4921 ****       -17.2500   6.5000  16.0000 Du        
   4922 ****       -17.2500   6.5000  16.2500 Du        
   4923 ****       -17.2500   6.7500  15.2500 Du        
   4924 ****       -17.2500   6.7500  15.5000 Du        
   4925 ****       -17.2500   6.7500  15.7500 Du        
   4926 ****       -17.2500   6.7500  16.0000 Du        
   4927 ****       -17.2500   6.7500  16.2500 Du        
   4928 ****       -17.2500   7.0000  14.7500 Du        
   4929 ****       -17.2500   7.0000  15.0000 Du        
   4930 ****       -17.2500   7.0000  15.2500 Du        
   4931 ****       -17.2500   7.0000  15.5000 Du        
   4932 ****       -17.2500   7.0000  15.7500 Du        
   4933 ****       -17.2500   7.0000  16.0000 Du        
   4934 ****       -17.2500   7.2500  14.7500 Du        
   4935 ****       -17.2500   7.2500  15.0000 Du        
   4936 ****       -17.2500   7.2500  15.2500 Du        
   4937 ****       -17.2500   7.2500  15.5000 Du        
   4938 ****       -17.2500   7.2500  15.7500 Du        
   4939 ****       -17.2500   7.5000  14.5000 Du        
   4940 ****       -17.2500   7.5000  14.7500 Du        
   4941 ****       -17.2500   7.5000  15.0000 Du        
   4942 ****       -17.2500   7.5000  15.2500 Du        
   4943 ****       -17.2500   7.5000  15.5000 Du        
   4944 ****       -17.2500   7.7500  14.5000 Du        
   4945 ****       -17.2500   7.7500  14.7500 Du        
   4946 ****       -17.2500   7.7500  15.0000 Du        
   4947 ****       -17.2500   7.7500  15.2500 Du        
   4948 ****       -17.2500   8.0000  14.0000 Du        
   4949 ****       -17.2500   8.0000  14.2500 Du        
   4950 ****       -17.2500   8.0000  14.5000 Du        
   4951 ****       -17.2500   8.0000  14.7500 Du        
   4952 ****       -17.2500   8.0000  15.0000 Du        
   4953 ****       -17.2500   8.0000  15.2500 Du        
   4954 ****       -17.2500   8.2500  14.0000 Du        
   4955 ****       -17.2500   8.2500  14.2500 Du        
   4956 ****       -17.2500   8.2500  14.5000 Du        
   4957 ****       -17.2500   8.2500  14.7500 Du        
   4958 ****       -17.2500   8.5000  13.7500 Du        
   4959 ****       -17.2500   8.5000  14.0000 Du        
   4960 ****       -17.2500   8.5000  14.2500 Du        
   4961 ****       -17.2500   8.5000  14.5000 Du        
   4962 ****       -17.0000   5.0000  23.7500 Du        
   4963 ****       -17.0000   5.0000  24.0000 Du        
   4964 ****       -17.0000   5.0000  24.2500 Du        
   4965 ****       -17.0000   5.0000  24.5000 Du        
   4966 ****       -17.0000   5.0000  24.7500 Du        
   4967 ****       -17.0000   5.0000  25.0000 Du        
   4968 ****       -17.0000   5.0000  25.2500 Du        
   4969 ****       -17.0000   5.2500  23.5000 Du        
   4970 ****       -17.0000   5.2500  23.7500 Du        
   4971 ****       -17.0000   5.2500  24.0000 Du        
   4972 ****       -17.0000   5.2500  24.2500 Du        
   4973 ****       -17.0000   5.2500  24.5000 Du        
   4974 ****       -17.0000   5.2500  24.7500 Du        
   4975 ****       -17.0000   5.2500  25.0000 Du        
   4976 ****       -17.0000   5.2500  25.2500 Du        
   4977 ****       -17.0000   5.2500  25.5000 Du        
   4978 ****       -17.0000   5.5000  23.5000 Du        
   4979 ****       -17.0000   5.5000  23.7500 Du        
   4980 ****       -17.0000   5.5000  24.0000 Du        
   4981 ****       -17.0000   5.5000  24.2500 Du        
   4982 ****       -17.0000   5.5000  24.5000 Du        
   4983 ****       -17.0000   5.5000  24.7500 Du        
   4984 ****       -17.0000   5.5000  25.0000 Du        
   4985 ****       -17.0000   5.5000  25.2500 Du        
   4986 ****       -17.0000   5.5000  25.5000 Du        
   4987 ****       -17.0000   5.7500  23.5000 Du        
   4988 ****       -17.0000   5.7500  23.7500 Du        
   4989 ****       -17.0000   5.7500  24.0000 Du        
   4990 ****       -17.0000   5.7500  24.2500 Du        
   4991 ****       -17.0000   5.7500  24.5000 Du        
   4992 ****       -17.0000   5.7500  24.7500 Du        
   4993 ****       -17.0000   5.7500  25.0000 Du        
   4994 ****       -17.0000   5.7500  25.2500 Du        
   4995 ****       -17.0000   5.7500  25.5000 Du        
   4996 ****       -17.0000   6.0000  16.0000 Du        
   4997 ****       -17.0000   6.0000  16.2500 Du        
   4998 ****       -17.0000   6.0000  23.7500 Du        
   4999 ****       -17.0000   6.0000  24.0000 Du        
   5000 ****       -17.0000   6.0000  24.2500 Du        
   5001 ****       -17.0000   6.0000  24.5000 Du        
   5002 ****       -17.0000   6.0000  24.7500 Du        
   5003 ****       -17.0000   6.0000  25.0000 Du        
   5004 ****       -17.0000   6.0000  25.2500 Du        
   5005 ****       -17.0000   6.2500  15.7500 Du        
   5006 ****       -17.0000   6.2500  16.0000 Du        
   5007 ****       -17.0000   6.2500  16.2500 Du        
   5008 ****       -17.0000   6.2500  24.0000 Du        
   5009 ****       -17.0000   6.2500  24.2500 Du        
   5010 ****       -17.0000   6.2500  24.5000 Du        
   5011 ****       -17.0000   6.2500  24.7500 Du        
   5012 ****       -17.0000   6.2500  25.0000 Du        
   5013 ****       -17.0000   6.2500  25.2500 Du        
   5014 ****       -17.0000   6.5000  15.5000 Du        
   5015 ****       -17.0000   6.5000  15.7500 Du        
   5016 ****       -17.0000   6.5000  16.0000 Du        
   5017 ****       -17.0000   6.5000  16.2500 Du        
   5018 ****       -17.0000   6.5000  24.2500 Du        
   5019 ****       -17.0000   6.5000  24.5000 Du        
   5020 ****       -17.0000   6.5000  24.7500 Du        
   5021 ****       -17.0000   6.5000  25.0000 Du        
   5022 ****       -17.0000   6.7500  15.5000 Du        
   5023 ****       -17.0000   6.7500  15.7500 Du        
   5024 ****       -17.0000   6.7500  16.0000 Du        
   5025 ****       -17.0000   6.7500  16.2500 Du        
   5026 ****       -17.0000   6.7500  24.7500 Du        
   5027 ****       -17.0000   6.7500  25.0000 Du        
   5028 ****       -17.0000   7.0000  15.0000 Du        
   5029 ****       -17.0000   7.0000  15.2500 Du        
   5030 ****       -17.0000   7.0000  15.5000 Du        
   5031 ****       -17.0000   7.0000  15.7500 Du        
   5032 ****       -17.0000   7.0000  16.0000 Du        
   5033 ****       -17.0000   7.2500  15.0000 Du        
   5034 ****       -17.0000   7.2500  15.2500 Du        
   5035 ****       -17.0000   7.2500  15.5000 Du        
   5036 ****       -17.0000   7.2500  15.7500 Du        
   5037 ****       -17.0000   7.5000  14.7500 Du        
   5038 ****       -17.0000   7.5000  15.0000 Du        
   5039 ****       -17.0000   7.5000  15.2500 Du        
   5040 ****       -17.0000   7.5000  15.5000 Du        
   5041 ****       -17.0000   7.7500  14.5000 Du        
   5042 ****       -17.0000   7.7500  14.7500 Du        
   5043 ****       -17.0000   7.7500  15.0000 Du        
   5044 ****       -17.0000   7.7500  15.2500 Du        
   5045 ****       -17.0000   8.0000  14.5000 Du        
   5046 ****       -17.0000   8.0000  14.7500 Du        
   5047 ****       -17.0000   8.0000  15.0000 Du        
   5048 ****       -17.0000   8.2500  14.5000 Du        
   5049 ****       -17.0000   8.5000  13.7500 Du        
   5050 ****       -17.0000   8.5000  14.0000 Du        
   5051 ****       -17.0000   8.5000  14.2500 Du        
   5052 ****       -16.7500   4.7500  24.2500 Du        
   5053 ****       -16.7500   4.7500  24.5000 Du        
   5054 ****       -16.7500   4.7500  24.7500 Du        
   5055 ****       -16.7500   4.7500  25.0000 Du        
   5056 ****       -16.7500   5.0000  23.7500 Du        
   5057 ****       -16.7500   5.0000  24.0000 Du        
   5058 ****       -16.7500   5.0000  24.2500 Du        
   5059 ****       -16.7500   5.0000  24.5000 Du        
   5060 ****       -16.7500   5.0000  24.7500 Du        
   5061 ****       -16.7500   5.0000  25.0000 Du        
   5062 ****       -16.7500   5.0000  25.2500 Du        
   5063 ****       -16.7500   5.2500  23.5000 Du        
   5064 ****       -16.7500   5.2500  23.7500 Du        
   5065 ****       -16.7500   5.2500  24.0000 Du        
   5066 ****       -16.7500   5.2500  24.2500 Du        
   5067 ****       -16.7500   5.2500  24.5000 Du        
   5068 ****       -16.7500   5.2500  24.7500 Du        
   5069 ****       -16.7500   5.2500  25.0000 Du        
   5070 ****       -16.7500   5.2500  25.2500 Du        
   5071 ****       -16.7500   5.2500  25.5000 Du        
   5072 ****       -16.7500   5.5000  23.5000 Du        
   5073 ****       -16.7500   5.5000  23.7500 Du        
   5074 ****       -16.7500   5.5000  24.0000 Du        
   5075 ****       -16.7500   5.5000  24.2500 Du        
   5076 ****       -16.7500   5.5000  24.5000 Du        
   5077 ****       -16.7500   5.5000  24.7500 Du        
   5078 ****       -16.7500   5.5000  25.0000 Du        
   5079 ****       -16.7500   5.5000  25.2500 Du        
   5080 ****       -16.7500   5.5000  25.5000 Du        
   5081 ****       -16.7500   5.5000  25.7500 Du        
   5082 ****       -16.7500   5.7500  23.5000 Du        
   5083 ****       -16.7500   5.7500  23.7500 Du        
   5084 ****       -16.7500   5.7500  24.0000 Du        
   5085 ****       -16.7500   5.7500  24.2500 Du        
   5086 ****       -16.7500   5.7500  24.5000 Du        
   5087 ****       -16.7500   5.7500  24.7500 Du        
   5088 ****       -16.7500   5.7500  25.0000 Du        
   5089 ****       -16.7500   5.7500  25.2500 Du        
   5090 ****       -16.7500   5.7500  25.5000 Du        
   5091 ****       -16.7500   5.7500  25.7500 Du        
   5092 ****       -16.7500   6.0000  23.5000 Du        
   5093 ****       -16.7500   6.0000  23.7500 Du        
   5094 ****       -16.7500   6.0000  24.0000 Du        
   5095 ****       -16.7500   6.0000  24.2500 Du        
   5096 ****       -16.7500   6.0000  24.5000 Du        
   5097 ****       -16.7500   6.0000  24.7500 Du        
   5098 ****       -16.7500   6.0000  25.0000 Du        
   5099 ****       -16.7500   6.0000  25.2500 Du        
   5100 ****       -16.7500   6.0000  25.5000 Du        
   5101 ****       -16.7500   6.0000  25.7500 Du        
   5102 ****       -16.7500   6.2500  16.0000 Du        
   5103 ****       -16.7500   6.2500  23.7500 Du        
   5104 ****       -16.7500   6.2500  24.0000 Du        
   5105 ****       -16.7500   6.2500  24.2500 Du        
   5106 ****       -16.7500   6.2500  24.5000 Du        
   5107 ****       -16.7500   6.2500  24.7500 Du        
   5108 ****       -16.7500   6.2500  25.0000 Du        
   5109 ****       -16.7500   6.2500  25.2500 Du        
   5110 ****       -16.7500   6.2500  25.5000 Du        
   5111 ****       -16.7500   6.5000  15.7500 Du        
   5112 ****       -16.7500   6.5000  16.0000 Du        
   5113 ****       -16.7500   6.5000  24.0000 Du        
   5114 ****       -16.7500   6.5000  24.2500 Du        
   5115 ****       -16.7500   6.5000  24.5000 Du        
   5116 ****       -16.7500   6.5000  24.7500 Du        
   5117 ****       -16.7500   6.5000  25.0000 Du        
   5118 ****       -16.7500   6.5000  25.2500 Du        
   5119 ****       -16.7500   6.7500  15.5000 Du        
   5120 ****       -16.7500   6.7500  15.7500 Du        
   5121 ****       -16.7500   6.7500  16.0000 Du        
   5122 ****       -16.7500   6.7500  24.2500 Du        
   5123 ****       -16.7500   6.7500  24.5000 Du        
   5124 ****       -16.7500   6.7500  24.7500 Du        
   5125 ****       -16.7500   6.7500  25.0000 Du        
   5126 ****       -16.7500   6.7500  25.2500 Du        
   5127 ****       -16.7500   7.0000  15.5000 Du        
   5128 ****       -16.7500   7.0000  15.7500 Du        
   5129 ****       -16.7500   7.0000  16.0000 Du        
   5130 ****       -16.7500   7.0000  24.5000 Du        
   5131 ****       -16.7500   7.0000  24.7500 Du        
   5132 ****       -16.7500   7.0000  25.0000 Du        
   5133 ****       -16.7500   7.2500  24.7500 Du        
   5134 ****       -16.7500   7.2500  25.0000 Du        
   5135 ****       -16.5000  -5.0000   3.5000 Du        
   5136 ****       -16.5000  -5.0000   3.7500 Du        
   5137 ****       -16.5000  -4.7500   3.5000 Du        
   5138 ****       -16.5000  -4.7500   3.7500 Du        
   5139 ****       -16.5000   4.7500  24.2500 Du        
   5140 ****       -16.5000   4.7500  24.5000 Du        
   5141 ****       -16.5000   4.7500  24.7500 Du        
   5142 ****       -16.5000   4.7500  25.0000 Du        
   5143 ****       -16.5000   5.0000  23.7500 Du        
   5144 ****       -16.5000   5.0000  24.0000 Du        
   5145 ****       -16.5000   5.0000  24.2500 Du        
   5146 ****       -16.5000   5.0000  24.5000 Du        
   5147 ****       -16.5000   5.0000  24.7500 Du        
   5148 ****       -16.5000   5.0000  25.0000 Du        
   5149 ****       -16.5000   5.0000  25.2500 Du        
   5150 ****       -16.5000   5.2500  23.5000 Du        
   5151 ****       -16.5000   5.2500  23.7500 Du        
   5152 ****       -16.5000   5.2500  24.0000 Du        
   5153 ****       -16.5000   5.2500  24.2500 Du        
   5154 ****       -16.5000   5.2500  24.5000 Du        
   5155 ****       -16.5000   5.2500  24.7500 Du        
   5156 ****       -16.5000   5.2500  25.0000 Du        
   5157 ****       -16.5000   5.2500  25.2500 Du        
   5158 ****       -16.5000   5.2500  25.5000 Du        
   5159 ****       -16.5000   5.5000  23.5000 Du        
   5160 ****       -16.5000   5.5000  23.7500 Du        
   5161 ****       -16.5000   5.5000  24.0000 Du        
   5162 ****       -16.5000   5.5000  24.2500 Du        
   5163 ****       -16.5000   5.5000  24.5000 Du        
   5164 ****       -16.5000   5.5000  24.7500 Du        
   5165 ****       -16.5000   5.5000  25.0000 Du        
   5166 ****       -16.5000   5.5000  25.2500 Du        
   5167 ****       -16.5000   5.5000  25.5000 Du        
   5168 ****       -16.5000   5.5000  25.7500 Du        
   5169 ****       -16.5000   5.7500  23.5000 Du        
   5170 ****       -16.5000   5.7500  23.7500 Du        
   5171 ****       -16.5000   5.7500  24.0000 Du        
   5172 ****       -16.5000   5.7500  24.2500 Du        
   5173 ****       -16.5000   5.7500  24.5000 Du        
   5174 ****       -16.5000   5.7500  24.7500 Du        
   5175 ****       -16.5000   5.7500  25.0000 Du        
   5176 ****       -16.5000   5.7500  25.2500 Du        
   5177 ****       -16.5000   5.7500  25.5000 Du        
   5178 ****       -16.5000   5.7500  25.7500 Du        
   5179 ****       -16.5000   6.0000  23.5000 Du        
   5180 ****       -16.5000   6.0000  23.7500 Du        
   5181 ****       -16.5000   6.0000  24.0000 Du        
   5182 ****       -16.5000   6.0000  24.2500 Du        
   5183 ****       -16.5000   6.0000  24.5000 Du        
   5184 ****       -16.5000   6.0000  24.7500 Du        
   5185 ****       -16.5000   6.0000  25.0000 Du        
   5186 ****       -16.5000   6.0000  25.2500 Du        
   5187 ****       -16.5000   6.0000  25.5000 Du        
   5188 ****       -16.5000   6.0000  25.7500 Du        
   5189 ****       -16.5000   6.2500  23.5000 Du        
   5190 ****       -16.5000   6.2500  23.7500 Du        
   5191 ****       -16.5000   6.2500  24.0000 Du        
   5192 ****       -16.5000   6.2500  24.2500 Du        
   5193 ****       -16.5000   6.2500  24.5000 Du        
   5194 ****       -16.5000   6.2500  24.7500 Du        
   5195 ****       -16.5000   6.2500  25.0000 Du        
   5196 ****       -16.5000   6.2500  25.2500 Du        
   5197 ****       -16.5000   6.2500  25.5000 Du        
   5198 ****       -16.5000   6.2500  25.7500 Du        
   5199 ****       -16.5000   6.5000  23.7500 Du        
   5200 ****       -16.5000   6.5000  24.0000 Du        
   5201 ****       -16.5000   6.5000  24.2500 Du        
   5202 ****       -16.5000   6.5000  24.5000 Du        
   5203 ****       -16.5000   6.5000  24.7500 Du        
   5204 ****       -16.5000   6.5000  25.0000 Du        
   5205 ****       -16.5000   6.5000  25.2500 Du        
   5206 ****       -16.5000   6.5000  25.5000 Du        
   5207 ****       -16.5000   6.7500  24.0000 Du        
   5208 ****       -16.5000   6.7500  24.2500 Du        
   5209 ****       -16.5000   6.7500  24.5000 Du        
   5210 ****       -16.5000   6.7500  24.7500 Du        
   5211 ****       -16.5000   6.7500  25.0000 Du        
   5212 ****       -16.5000   6.7500  25.2500 Du        
   5213 ****       -16.5000   7.0000  24.2500 Du        
   5214 ****       -16.5000   7.0000  24.5000 Du        
   5215 ****       -16.5000   7.0000  24.7500 Du        
   5216 ****       -16.5000   7.0000  25.0000 Du        
   5217 ****       -16.5000   7.0000  25.2500 Du        
   5218 ****       -16.5000   7.2500  24.7500 Du        
   5219 ****       -16.5000   7.2500  25.0000 Du        
   5220 ****       -16.2500  -5.5000   4.0000 Du        
   5221 ****       -16.2500  -5.2500   3.5000 Du        
   5222 ****       -16.2500  -5.2500   3.7500 Du        
   5223 ****       -16.2500  -5.2500   4.0000 Du        
   5224 ****       -16.2500  -5.2500   4.2500 Du        
   5225 ****       -16.2500  -5.0000   3.5000 Du        
   5226 ****       -16.2500  -5.0000   3.7500 Du        
   5227 ****       -16.2500  -5.0000   4.0000 Du        
   5228 ****       -16.2500  -5.0000   4.2500 Du        
   5229 ****       -16.2500  -4.7500   3.5000 Du        
   5230 ****       -16.2500  -4.7500   3.7500 Du        
   5231 ****       -16.2500  -4.7500   4.0000 Du        
   5232 ****       -16.2500  -4.7500   4.2500 Du        
   5233 ****       -16.2500  -4.5000   3.5000 Du        
   5234 ****       -16.2500  -4.5000   3.7500 Du        
   5235 ****       -16.2500  -4.5000   4.0000 Du        
   5236 ****       -16.2500  -4.2500   3.5000 Du        
   5237 ****       -16.2500  -4.2500   3.7500 Du        
   5238 ****       -16.2500  -4.2500   4.0000 Du        
   5239 ****       -16.2500   4.7500  24.2500 Du        
   5240 ****       -16.2500   4.7500  24.5000 Du        
   5241 ****       -16.2500   4.7500  24.7500 Du        
   5242 ****       -16.2500   4.7500  25.0000 Du        
   5243 ****       -16.2500   5.0000  23.7500 Du        
   5244 ****       -16.2500   5.0000  24.0000 Du        
   5245 ****       -16.2500   5.0000  24.2500 Du        
   5246 ****       -16.2500   5.0000  24.5000 Du        
   5247 ****       -16.2500   5.0000  24.7500 Du        
   5248 ****       -16.2500   5.0000  25.0000 Du        
   5249 ****       -16.2500   5.0000  25.2500 Du        
   5250 ****       -16.2500   5.2500  23.5000 Du        
   5251 ****       -16.2500   5.2500  23.7500 Du        
   5252 ****       -16.2500   5.2500  24.0000 Du        
   5253 ****       -16.2500   5.2500  24.2500 Du        
   5254 ****       -16.2500   5.2500  24.5000 Du        
   5255 ****       -16.2500   5.2500  24.7500 Du        
   5256 ****       -16.2500   5.2500  25.0000 Du        
   5257 ****       -16.2500   5.2500  25.2500 Du        
   5258 ****       -16.2500   5.2500  25.5000 Du        
   5259 ****       -16.2500   5.5000  23.5000 Du        
   5260 ****       -16.2500   5.5000  23.7500 Du        
   5261 ****       -16.2500   5.5000  24.0000 Du        
   5262 ****       -16.2500   5.5000  24.2500 Du        
   5263 ****       -16.2500   5.5000  24.5000 Du        
   5264 ****       -16.2500   5.5000  24.7500 Du        
   5265 ****       -16.2500   5.5000  25.0000 Du        
   5266 ****       -16.2500   5.5000  25.2500 Du        
   5267 ****       -16.2500   5.5000  25.5000 Du        
   5268 ****       -16.2500   5.5000  25.7500 Du        
   5269 ****       -16.2500   5.7500  23.5000 Du        
   5270 ****       -16.2500   5.7500  23.7500 Du        
   5271 ****       -16.2500   5.7500  24.0000 Du        
   5272 ****       -16.2500   5.7500  24.2500 Du        
   5273 ****       -16.2500   5.7500  24.5000 Du        
   5274 ****       -16.2500   5.7500  24.7500 Du        
   5275 ****       -16.2500   5.7500  25.0000 Du        
   5276 ****       -16.2500   5.7500  25.2500 Du        
   5277 ****       -16.2500   5.7500  25.5000 Du        
   5278 ****       -16.2500   5.7500  25.7500 Du        
   5279 ****       -16.2500   6.0000  23.5000 Du        
   5280 ****       -16.2500   6.0000  23.7500 Du        
   5281 ****       -16.2500   6.0000  24.0000 Du        
   5282 ****       -16.2500   6.0000  24.2500 Du        
   5283 ****       -16.2500   6.0000  24.5000 Du        
   5284 ****       -16.2500   6.0000  24.7500 Du        
   5285 ****       -16.2500   6.0000  25.0000 Du        
   5286 ****       -16.2500   6.0000  25.2500 Du        
   5287 ****       -16.2500   6.0000  25.5000 Du        
   5288 ****       -16.2500   6.0000  25.7500 Du        
   5289 ****       -16.2500   6.0000  26.0000 Du        
   5290 ****       -16.2500   6.2500  23.5000 Du        
   5291 ****       -16.2500   6.2500  23.7500 Du        
   5292 ****       -16.2500   6.2500  24.0000 Du        
   5293 ****       -16.2500   6.2500  24.2500 Du        
   5294 ****       -16.2500   6.2500  24.5000 Du        
   5295 ****       -16.2500   6.2500  24.7500 Du        
   5296 ****       -16.2500   6.2500  25.0000 Du        
   5297 ****       -16.2500   6.2500  25.2500 Du        
   5298 ****       -16.2500   6.2500  25.5000 Du        
   5299 ****       -16.2500   6.2500  25.7500 Du        
   5300 ****       -16.2500   6.5000  23.7500 Du        
   5301 ****       -16.2500   6.5000  24.0000 Du        
   5302 ****       -16.2500   6.5000  24.2500 Du        
   5303 ****       -16.2500   6.5000  24.5000 Du        
   5304 ****       -16.2500   6.5000  24.7500 Du        
   5305 ****       -16.2500   6.5000  25.0000 Du        
   5306 ****       -16.2500   6.5000  25.2500 Du        
   5307 ****       -16.2500   6.5000  25.5000 Du        
   5308 ****       -16.2500   6.7500  23.7500 Du        
   5309 ****       -16.2500   6.7500  24.0000 Du        
   5310 ****       -16.2500   6.7500  24.2500 Du        
   5311 ****       -16.2500   6.7500  24.5000 Du        
   5312 ****       -16.2500   6.7500  24.7500 Du        
   5313 ****       -16.2500   6.7500  25.0000 Du        
   5314 ****       -16.2500   6.7500  25.2500 Du        
   5315 ****       -16.2500   6.7500  25.5000 Du        
   5316 ****       -16.2500   7.0000  24.0000 Du        
   5317 ****       -16.2500   7.0000  24.2500 Du        
   5318 ****       -16.2500   7.0000  24.5000 Du        
   5319 ****       -16.2500   7.0000  24.7500 Du        
   5320 ****       -16.2500   7.0000  25.0000 Du        
   5321 ****       -16.2500   7.0000  25.2500 Du        
   5322 ****       -16.2500   7.2500  24.5000 Du        
   5323 ****       -16.2500   7.2500  24.7500 Du        
   5324 ****       -16.2500   7.2500  25.0000 Du        
   5325 ****       -16.2500   7.2500  25.2500 Du        
   5326 ****       -16.0000  -5.7500   3.7500 Du        
   5327 ****       -16.0000  -5.7500   4.0000 Du        
   5328 ****       -16.0000  -5.7500   4.2500 Du        
   5329 ****       -16.0000  -5.5000   3.5000 Du        
   5330 ****       -16.0000  -5.5000   3.7500 Du        
   5331 ****       -16.0000  -5.5000   4.0000 Du        
   5332 ****       -16.0000  -5.5000   4.2500 Du        
   5333 ****       -16.0000  -5.2500   3.5000 Du        
   5334 ****       -16.0000  -5.2500   3.7500 Du        
   5335 ****       -16.0000  -5.2500   4.0000 Du        
   5336 ****       -16.0000  -5.2500   4.2500 Du        
   5337 ****       -16.0000  -5.2500   4.5000 Du        
   5338 ****       -16.0000  -5.0000   3.5000 Du        
   5339 ****       -16.0000  -5.0000   3.7500 Du        
   5340 ****       -16.0000  -5.0000   4.0000 Du        
   5341 ****       -16.0000  -5.0000   4.2500 Du        
   5342 ****       -16.0000  -5.0000   4.5000 Du        
   5343 ****       -16.0000  -5.0000   4.7500 Du        
   5344 ****       -16.0000  -4.7500   3.5000 Du        
   5345 ****       -16.0000  -4.7500   3.7500 Du        
   5346 ****       -16.0000  -4.7500   4.0000 Du        
   5347 ****       -16.0000  -4.7500   4.2500 Du        
   5348 ****       -16.0000  -4.7500   4.5000 Du        
   5349 ****       -16.0000  -4.7500   4.7500 Du        
   5350 ****       -16.0000  -4.5000   3.5000 Du        
   5351 ****       -16.0000  -4.5000   3.7500 Du        
   5352 ****       -16.0000  -4.5000   4.0000 Du        
   5353 ****       -16.0000  -4.5000   4.2500 Du        
   5354 ****       -16.0000  -4.5000   4.5000 Du        
   5355 ****       -16.0000  -4.2500   3.5000 Du        
   5356 ****       -16.0000  -4.2500   3.7500 Du        
   5357 ****       -16.0000  -4.2500   4.0000 Du        
   5358 ****       -16.0000  -4.2500   4.2500 Du        
   5359 ****       -16.0000  -4.2500   4.5000 Du        
   5360 ****       -16.0000  -4.0000   3.7500 Du        
   5361 ****       -16.0000  -4.0000   4.0000 Du        
   5362 ****       -16.0000  -4.0000   4.2500 Du        
   5363 ****       -16.0000   4.7500  24.5000 Du        
   5364 ****       -16.0000   4.7500  24.7500 Du        
   5365 ****       -16.0000   5.0000  23.5000 Du        
   5366 ****       -16.0000   5.0000  23.7500 Du        
   5367 ****       -16.0000   5.0000  24.0000 Du        
   5368 ****       -16.0000   5.0000  24.2500 Du        
   5369 ****       -16.0000   5.0000  24.5000 Du        
   5370 ****       -16.0000   5.0000  24.7500 Du        
   5371 ****       -16.0000   5.0000  25.0000 Du        
   5372 ****       -16.0000   5.0000  25.2500 Du        
   5373 ****       -16.0000   5.2500  23.5000 Du        
   5374 ****       -16.0000   5.2500  23.7500 Du        
   5375 ****       -16.0000   5.2500  24.0000 Du        
   5376 ****       -16.0000   5.2500  24.2500 Du        
   5377 ****       -16.0000   5.2500  24.5000 Du        
   5378 ****       -16.0000   5.2500  24.7500 Du        
   5379 ****       -16.0000   5.2500  25.0000 Du        
   5380 ****       -16.0000   5.2500  25.2500 Du        
   5381 ****       -16.0000   5.2500  25.5000 Du        
   5382 ****       -16.0000   5.5000  23.5000 Du        
   5383 ****       -16.0000   5.5000  23.7500 Du        
   5384 ****       -16.0000   5.5000  24.0000 Du        
   5385 ****       -16.0000   5.5000  24.2500 Du        
   5386 ****       -16.0000   5.5000  24.5000 Du        
   5387 ****       -16.0000   5.5000  24.7500 Du        
   5388 ****       -16.0000   5.5000  25.0000 Du        
   5389 ****       -16.0000   5.5000  25.2500 Du        
   5390 ****       -16.0000   5.5000  25.5000 Du        
   5391 ****       -16.0000   5.7500  23.2500 Du        
   5392 ****       -16.0000   5.7500  23.5000 Du        
   5393 ****       -16.0000   5.7500  23.7500 Du        
   5394 ****       -16.0000   5.7500  24.0000 Du        
   5395 ****       -16.0000   5.7500  24.2500 Du        
   5396 ****       -16.0000   5.7500  24.5000 Du        
   5397 ****       -16.0000   5.7500  24.7500 Du        
   5398 ****       -16.0000   5.7500  25.0000 Du        
   5399 ****       -16.0000   5.7500  25.2500 Du        
   5400 ****       -16.0000   5.7500  25.5000 Du        
   5401 ****       -16.0000   5.7500  25.7500 Du        
   5402 ****       -16.0000   6.0000  23.2500 Du        
   5403 ****       -16.0000   6.0000  23.5000 Du        
   5404 ****       -16.0000   6.0000  23.7500 Du        
   5405 ****       -16.0000   6.0000  24.0000 Du        
   5406 ****       -16.0000   6.0000  24.2500 Du        
   5407 ****       -16.0000   6.0000  24.5000 Du        
   5408 ****       -16.0000   6.0000  24.7500 Du        
   5409 ****       -16.0000   6.0000  25.0000 Du        
   5410 ****       -16.0000   6.0000  25.2500 Du        
   5411 ****       -16.0000   6.0000  25.5000 Du        
   5412 ****       -16.0000   6.0000  25.7500 Du        
   5413 ****       -16.0000   6.0000  26.0000 Du        
   5414 ****       -16.0000   6.2500  23.2500 Du        
   5415 ****       -16.0000   6.2500  23.5000 Du        
   5416 ****       -16.0000   6.2500  23.7500 Du        
   5417 ****       -16.0000   6.2500  24.0000 Du        
   5418 ****       -16.0000   6.2500  24.2500 Du        
   5419 ****       -16.0000   6.2500  24.5000 Du        
   5420 ****       -16.0000   6.2500  24.7500 Du        
   5421 ****       -16.0000   6.2500  25.0000 Du        
   5422 ****       -16.0000   6.2500  25.2500 Du        
   5423 ****       -16.0000   6.2500  25.5000 Du        
   5424 ****       -16.0000   6.2500  25.7500 Du        
   5425 ****       -16.0000   6.2500  26.0000 Du        
   5426 ****       -16.0000   6.5000  23.5000 Du        
   5427 ****       -16.0000   6.5000  23.7500 Du        
   5428 ****       -16.0000   6.5000  24.0000 Du        
   5429 ****       -16.0000   6.5000  24.2500 Du        
   5430 ****       -16.0000   6.5000  24.5000 Du        
   5431 ****       -16.0000   6.5000  24.7500 Du        
   5432 ****       -16.0000   6.5000  25.0000 Du        
   5433 ****       -16.0000   6.5000  25.2500 Du        
   5434 ****       -16.0000   6.5000  25.5000 Du        
   5435 ****       -16.0000   6.5000  25.7500 Du        
   5436 ****       -16.0000   6.7500  23.7500 Du        
   5437 ****       -16.0000   6.7500  24.0000 Du        
   5438 ****       -16.0000   6.7500  24.2500 Du        
   5439 ****       -16.0000   6.7500  24.5000 Du        
   5440 ****       -16.0000   6.7500  24.7500 Du        
   5441 ****       -16.0000   6.7500  25.0000 Du        
   5442 ****       -16.0000   6.7500  25.2500 Du        
   5443 ****       -16.0000   6.7500  25.5000 Du        
   5444 ****       -16.0000   6.7500  25.7500 Du        
   5445 ****       -16.0000   7.0000  24.0000 Du        
   5446 ****       -16.0000   7.0000  24.2500 Du        
   5447 ****       -16.0000   7.0000  24.5000 Du        
   5448 ****       -16.0000   7.0000  24.7500 Du        
   5449 ****       -16.0000   7.0000  25.0000 Du        
   5450 ****       -16.0000   7.0000  25.2500 Du        
   5451 ****       -16.0000   7.0000  25.5000 Du        
   5452 ****       -16.0000   7.2500  24.2500 Du        
   5453 ****       -16.0000   7.2500  24.5000 Du        
   5454 ****       -16.0000   7.2500  24.7500 Du        
   5455 ****       -16.0000   7.2500  25.0000 Du        
   5456 ****       -16.0000   7.2500  25.2500 Du        
   5457 ****       -15.7500  -6.2500   3.7500 Du        
   5458 ****       -15.7500  -6.2500   4.0000 Du        
   5459 ****       -15.7500  -6.0000   3.5000 Du        
   5460 ****       -15.7500  -6.0000   3.7500 Du        
   5461 ****       -15.7500  -6.0000   4.0000 Du        
   5462 ****       -15.7500  -6.0000   4.2500 Du        
   5463 ****       -15.7500  -5.7500   3.5000 Du        
   5464 ****       -15.7500  -5.7500   3.7500 Du        
   5465 ****       -15.7500  -5.7500   4.0000 Du        
   5466 ****       -15.7500  -5.7500   4.2500 Du        
   5467 ****       -15.7500  -5.5000   3.5000 Du        
   5468 ****       -15.7500  -5.5000   3.7500 Du        
   5469 ****       -15.7500  -5.5000   4.0000 Du        
   5470 ****       -15.7500  -5.5000   4.2500 Du        
   5471 ****       -15.7500  -5.5000   4.5000 Du        
   5472 ****       -15.7500  -5.2500   3.5000 Du        
   5473 ****       -15.7500  -5.2500   3.7500 Du        
   5474 ****       -15.7500  -5.2500   4.0000 Du        
   5475 ****       -15.7500  -5.2500   4.2500 Du        
   5476 ****       -15.7500  -5.2500   4.5000 Du        
   5477 ****       -15.7500  -5.2500   4.7500 Du        
   5478 ****       -15.7500  -5.0000   3.5000 Du        
   5479 ****       -15.7500  -5.0000   3.7500 Du        
   5480 ****       -15.7500  -5.0000   4.0000 Du        
   5481 ****       -15.7500  -5.0000   4.2500 Du        
   5482 ****       -15.7500  -5.0000   4.5000 Du        
   5483 ****       -15.7500  -5.0000   4.7500 Du        
   5484 ****       -15.7500  -4.7500   3.5000 Du        
   5485 ****       -15.7500  -4.7500   3.7500 Du        
   5486 ****       -15.7500  -4.7500   4.0000 Du        
   5487 ****       -15.7500  -4.7500   4.2500 Du        
   5488 ****       -15.7500  -4.7500   4.5000 Du        
   5489 ****       -15.7500  -4.7500   4.7500 Du        
   5490 ****       -15.7500  -4.7500   5.0000 Du        
   5491 ****       -15.7500  -4.5000   3.5000 Du        
   5492 ****       -15.7500  -4.5000   3.7500 Du        
   5493 ****       -15.7500  -4.5000   4.0000 Du        
   5494 ****       -15.7500  -4.5000   4.2500 Du        
   5495 ****       -15.7500  -4.5000   4.5000 Du        
   5496 ****       -15.7500  -4.5000   4.7500 Du        
   5497 ****       -15.7500  -4.5000   5.0000 Du        
   5498 ****       -15.7500  -4.2500   3.7500 Du        
   5499 ****       -15.7500  -4.2500   4.0000 Du        
   5500 ****       -15.7500  -4.2500   4.2500 Du        
   5501 ****       -15.7500  -4.2500   4.5000 Du        
   5502 ****       -15.7500  -4.2500   4.7500 Du        
   5503 ****       -15.7500  -4.2500   5.0000 Du        
   5504 ****       -15.7500  -4.0000   3.7500 Du        
   5505 ****       -15.7500  -4.0000   4.0000 Du        
   5506 ****       -15.7500  -4.0000   4.2500 Du        
   5507 ****       -15.7500  -4.0000   4.5000 Du        
   5508 ****       -15.7500  -4.0000   4.7500 Du        
   5509 ****       -15.7500  -4.0000   5.0000 Du        
   5510 ****       -15.7500  -3.7500   4.2500 Du        
   5511 ****       -15.7500  -3.7500   4.5000 Du        
   5512 ****       -15.7500  -3.7500   4.7500 Du        
   5513 ****       -15.7500  -3.7500   5.0000 Du        
   5514 ****       -15.7500  -3.7500   5.2500 Du        
   5515 ****       -15.7500  -3.5000   4.5000 Du        
   5516 ****       -15.7500  -3.5000   4.7500 Du        
   5517 ****       -15.7500  -3.5000   5.0000 Du        
   5518 ****       -15.7500  -3.2500   5.0000 Du        
   5519 ****       -15.7500   4.7500  24.5000 Du        
   5520 ****       -15.7500   4.7500  24.7500 Du        
   5521 ****       -15.7500   5.0000  23.5000 Du        
   5522 ****       -15.7500   5.0000  23.7500 Du        
   5523 ****       -15.7500   5.0000  24.0000 Du        
   5524 ****       -15.7500   5.0000  24.2500 Du        
   5525 ****       -15.7500   5.0000  24.5000 Du        
   5526 ****       -15.7500   5.0000  24.7500 Du        
   5527 ****       -15.7500   5.0000  25.0000 Du        
   5528 ****       -15.7500   5.2500  23.2500 Du        
   5529 ****       -15.7500   5.2500  23.5000 Du        
   5530 ****       -15.7500   5.2500  23.7500 Du        
   5531 ****       -15.7500   5.2500  24.0000 Du        
   5532 ****       -15.7500   5.2500  24.2500 Du        
   5533 ****       -15.7500   5.2500  24.5000 Du        
   5534 ****       -15.7500   5.2500  24.7500 Du        
   5535 ****       -15.7500   5.2500  25.0000 Du        
   5536 ****       -15.7500   5.2500  25.2500 Du        
   5537 ****       -15.7500   5.5000  23.2500 Du        
   5538 ****       -15.7500   5.5000  23.5000 Du        
   5539 ****       -15.7500   5.5000  23.7500 Du        
   5540 ****       -15.7500   5.5000  24.0000 Du        
   5541 ****       -15.7500   5.5000  24.2500 Du        
   5542 ****       -15.7500   5.5000  24.5000 Du        
   5543 ****       -15.7500   5.5000  24.7500 Du        
   5544 ****       -15.7500   5.5000  25.0000 Du        
   5545 ****       -15.7500   5.5000  25.2500 Du        
   5546 ****       -15.7500   5.5000  25.5000 Du        
   5547 ****       -15.7500   5.7500  23.2500 Du        
   5548 ****       -15.7500   5.7500  23.5000 Du        
   5549 ****       -15.7500   5.7500  23.7500 Du        
   5550 ****       -15.7500   5.7500  24.0000 Du        
   5551 ****       -15.7500   5.7500  24.2500 Du        
   5552 ****       -15.7500   5.7500  24.5000 Du        
   5553 ****       -15.7500   5.7500  24.7500 Du        
   5554 ****       -15.7500   5.7500  25.0000 Du        
   5555 ****       -15.7500   5.7500  25.2500 Du        
   5556 ****       -15.7500   5.7500  25.5000 Du        
   5557 ****       -15.7500   5.7500  25.7500 Du        
   5558 ****       -15.7500   6.0000  23.2500 Du        
   5559 ****       -15.7500   6.0000  23.5000 Du        
   5560 ****       -15.7500   6.0000  23.7500 Du        
   5561 ****       -15.7500   6.0000  24.0000 Du        
   5562 ****       -15.7500   6.0000  24.2500 Du        
   5563 ****       -15.7500   6.0000  24.5000 Du        
   5564 ****       -15.7500   6.0000  24.7500 Du        
   5565 ****       -15.7500   6.0000  25.0000 Du        
   5566 ****       -15.7500   6.0000  25.2500 Du        
   5567 ****       -15.7500   6.0000  25.5000 Du        
   5568 ****       -15.7500   6.0000  25.7500 Du        
   5569 ****       -15.7500   6.0000  26.0000 Du        
   5570 ****       -15.7500   6.2500  23.2500 Du        
   5571 ****       -15.7500   6.2500  23.5000 Du        
   5572 ****       -15.7500   6.2500  23.7500 Du        
   5573 ****       -15.7500   6.2500  24.0000 Du        
   5574 ****       -15.7500   6.2500  24.2500 Du        
   5575 ****       -15.7500   6.2500  24.5000 Du        
   5576 ****       -15.7500   6.2500  24.7500 Du        
   5577 ****       -15.7500   6.2500  25.0000 Du        
   5578 ****       -15.7500   6.2500  25.2500 Du        
   5579 ****       -15.7500   6.2500  25.5000 Du        
   5580 ****       -15.7500   6.2500  25.7500 Du        
   5581 ****       -15.7500   6.2500  26.0000 Du        
   5582 ****       -15.7500   6.5000  23.2500 Du        
   5583 ****       -15.7500   6.5000  23.5000 Du        
   5584 ****       -15.7500   6.5000  23.7500 Du        
   5585 ****       -15.7500   6.5000  24.0000 Du        
   5586 ****       -15.7500   6.5000  24.2500 Du        
   5587 ****       -15.7500   6.5000  24.5000 Du        
   5588 ****       -15.7500   6.5000  24.7500 Du        
   5589 ****       -15.7500   6.5000  25.0000 Du        
   5590 ****       -15.7500   6.5000  25.2500 Du        
   5591 ****       -15.7500   6.5000  25.5000 Du        
   5592 ****       -15.7500   6.5000  25.7500 Du        
   5593 ****       -15.7500   6.5000  26.0000 Du        
   5594 ****       -15.7500   6.7500  23.5000 Du        
   5595 ****       -15.7500   6.7500  23.7500 Du        
   5596 ****       -15.7500   6.7500  24.0000 Du        
   5597 ****       -15.7500   6.7500  24.2500 Du        
   5598 ****       -15.7500   6.7500  24.5000 Du        
   5599 ****       -15.7500   6.7500  24.7500 Du        
   5600 ****       -15.7500   6.7500  25.0000 Du        
   5601 ****       -15.7500   6.7500  25.2500 Du        
   5602 ****       -15.7500   6.7500  25.5000 Du        
   5603 ****       -15.7500   6.7500  25.7500 Du        
   5604 ****       -15.7500   7.0000  23.7500 Du        
   5605 ****       -15.7500   7.0000  24.0000 Du        
   5606 ****       -15.7500   7.0000  24.2500 Du        
   5607 ****       -15.7500   7.0000  24.5000 Du        
   5608 ****       -15.7500   7.0000  24.7500 Du        
   5609 ****       -15.7500   7.0000  25.0000 Du        
   5610 ****       -15.7500   7.0000  25.2500 Du        
   5611 ****       -15.7500   7.0000  25.5000 Du        
   5612 ****       -15.7500   7.0000  25.7500 Du        
   5613 ****       -15.7500   7.2500  24.0000 Du        
   5614 ****       -15.7500   7.2500  24.2500 Du        
   5615 ****       -15.7500   7.2500  24.5000 Du        
   5616 ****       -15.7500   7.2500  24.7500 Du        
   5617 ****       -15.7500   7.2500  25.0000 Du        
   5618 ****       -15.7500   7.2500  25.2500 Du        
   5619 ****       -15.7500   7.2500  25.5000 Du        
   5620 ****       -15.5000  -6.5000   3.7500 Du        
   5621 ****       -15.5000  -6.2500   3.5000 Du        
   5622 ****       -15.5000  -6.2500   3.7500 Du        
   5623 ****       -15.5000  -6.2500   4.0000 Du        
   5624 ****       -15.5000  -6.0000   3.5000 Du        
   5625 ****       -15.5000  -6.0000   3.7500 Du        
   5626 ****       -15.5000  -6.0000   4.0000 Du        
   5627 ****       -15.5000  -6.0000   4.2500 Du        
   5628 ****       -15.5000  -5.7500   3.5000 Du        
   5629 ****       -15.5000  -5.7500   3.7500 Du        
   5630 ****       -15.5000  -5.7500   4.0000 Du        
   5631 ****       -15.5000  -5.7500   4.2500 Du        
   5632 ****       -15.5000  -5.7500   4.5000 Du        
   5633 ****       -15.5000  -5.5000   3.5000 Du        
   5634 ****       -15.5000  -5.5000   3.7500 Du        
   5635 ****       -15.5000  -5.5000   4.0000 Du        
   5636 ****       -15.5000  -5.5000   4.2500 Du        
   5637 ****       -15.5000  -5.5000   4.5000 Du        
   5638 ****       -15.5000  -5.2500   3.5000 Du        
   5639 ****       -15.5000  -5.2500   3.7500 Du        
   5640 ****       -15.5000  -5.2500   4.0000 Du        
   5641 ****       -15.5000  -5.2500   4.2500 Du        
   5642 ****       -15.5000  -5.2500   4.5000 Du        
   5643 ****       -15.5000  -5.2500   4.7500 Du        
   5644 ****       -15.5000  -5.0000   3.5000 Du        
   5645 ****       -15.5000  -5.0000   3.7500 Du        
   5646 ****       -15.5000  -5.0000   4.0000 Du        
   5647 ****       -15.5000  -5.0000   4.2500 Du        
   5648 ****       -15.5000  -5.0000   4.5000 Du        
   5649 ****       -15.5000  -5.0000   4.7500 Du        
   5650 ****       -15.5000  -4.7500   3.5000 Du        
   5651 ****       -15.5000  -4.7500   3.7500 Du        
   5652 ****       -15.5000  -4.7500   4.0000 Du        
   5653 ****       -15.5000  -4.7500   4.2500 Du        
   5654 ****       -15.5000  -4.7500   4.5000 Du        
   5655 ****       -15.5000  -4.7500   4.7500 Du        
   5656 ****       -15.5000  -4.7500   5.0000 Du        
   5657 ****       -15.5000  -4.5000   4.0000 Du        
   5658 ****       -15.5000  -4.5000   4.2500 Du        
   5659 ****       -15.5000  -4.5000   4.5000 Du        
   5660 ****       -15.5000  -4.5000   4.7500 Du        
   5661 ****       -15.5000  -4.5000   5.0000 Du        
   5662 ****       -15.5000  -4.5000   5.2500 Du        
   5663 ****       -15.5000  -4.2500   4.2500 Du        
   5664 ****       -15.5000  -4.2500   4.5000 Du        
   5665 ****       -15.5000  -4.2500   4.7500 Du        
   5666 ****       -15.5000  -4.2500   5.0000 Du        
   5667 ****       -15.5000  -4.2500   5.2500 Du        
   5668 ****       -15.5000  -4.0000   4.5000 Du        
   5669 ****       -15.5000  -4.0000   4.7500 Du        
   5670 ****       -15.5000  -4.0000   5.0000 Du        
   5671 ****       -15.5000  -4.0000   5.2500 Du        
   5672 ****       -15.5000  -3.7500   4.5000 Du        
   5673 ****       -15.5000  -3.7500   4.7500 Du        
   5674 ****       -15.5000  -3.7500   5.0000 Du        
   5675 ****       -15.5000  -3.7500   5.2500 Du        
   5676 ****       -15.5000   5.0000  23.5000 Du        
   5677 ****       -15.5000   5.0000  23.7500 Du        
   5678 ****       -15.5000   5.0000  24.0000 Du        
   5679 ****       -15.5000   5.0000  24.2500 Du        
   5680 ****       -15.5000   5.0000  24.5000 Du        
   5681 ****       -15.5000   5.0000  24.7500 Du        
   5682 ****       -15.5000   5.0000  25.0000 Du        
   5683 ****       -15.5000   5.2500  23.5000 Du        
   5684 ****       -15.5000   5.2500  23.7500 Du        
   5685 ****       -15.5000   5.2500  24.0000 Du        
   5686 ****       -15.5000   5.2500  24.2500 Du        
   5687 ****       -15.5000   5.2500  24.5000 Du        
   5688 ****       -15.5000   5.2500  24.7500 Du        
   5689 ****       -15.5000   5.2500  25.0000 Du        
   5690 ****       -15.5000   5.2500  25.2500 Du        
   5691 ****       -15.5000   5.5000  23.5000 Du        
   5692 ****       -15.5000   5.5000  23.7500 Du        
   5693 ****       -15.5000   5.5000  24.0000 Du        
   5694 ****       -15.5000   5.5000  24.2500 Du        
   5695 ****       -15.5000   5.5000  24.5000 Du        
   5696 ****       -15.5000   5.5000  24.7500 Du        
   5697 ****       -15.5000   5.5000  25.0000 Du        
   5698 ****       -15.5000   5.5000  25.2500 Du        
   5699 ****       -15.5000   5.7500  23.5000 Du        
   5700 ****       -15.5000   5.7500  23.7500 Du        
   5701 ****       -15.5000   5.7500  24.0000 Du        
   5702 ****       -15.5000   5.7500  24.2500 Du        
   5703 ****       -15.5000   5.7500  24.5000 Du        
   5704 ****       -15.5000   5.7500  24.7500 Du        
   5705 ****       -15.5000   5.7500  25.0000 Du        
   5706 ****       -15.5000   5.7500  25.2500 Du        
   5707 ****       -15.5000   5.7500  25.5000 Du        
   5708 ****       -15.5000   6.0000  23.2500 Du        
   5709 ****       -15.5000   6.0000  23.5000 Du        
   5710 ****       -15.5000   6.0000  23.7500 Du        
   5711 ****       -15.5000   6.0000  24.0000 Du        
   5712 ****       -15.5000   6.0000  24.2500 Du        
   5713 ****       -15.5000   6.0000  24.5000 Du        
   5714 ****       -15.5000   6.0000  24.7500 Du        
   5715 ****       -15.5000   6.0000  25.0000 Du        
   5716 ****       -15.5000   6.0000  25.2500 Du        
   5717 ****       -15.5000   6.0000  25.5000 Du        
   5718 ****       -15.5000   6.0000  25.7500 Du        
   5719 ****       -15.5000   6.2500  23.5000 Du        
   5720 ****       -15.5000   6.2500  23.7500 Du        
   5721 ****       -15.5000   6.2500  24.0000 Du        
   5722 ****       -15.5000   6.2500  24.2500 Du        
   5723 ****       -15.5000   6.2500  24.5000 Du        
   5724 ****       -15.5000   6.2500  24.7500 Du        
   5725 ****       -15.5000   6.2500  25.0000 Du        
   5726 ****       -15.5000   6.2500  25.2500 Du        
   5727 ****       -15.5000   6.2500  25.5000 Du        
   5728 ****       -15.5000   6.2500  25.7500 Du        
   5729 ****       -15.5000   6.5000  23.5000 Du        
   5730 ****       -15.5000   6.5000  23.7500 Du        
   5731 ****       -15.5000   6.5000  24.0000 Du        
   5732 ****       -15.5000   6.5000  24.2500 Du        
   5733 ****       -15.5000   6.5000  24.5000 Du        
   5734 ****       -15.5000   6.5000  24.7500 Du        
   5735 ****       -15.5000   6.5000  25.0000 Du        
   5736 ****       -15.5000   6.5000  25.2500 Du        
   5737 ****       -15.5000   6.5000  25.5000 Du        
   5738 ****       -15.5000   6.5000  25.7500 Du        
   5739 ****       -15.5000   6.7500  23.7500 Du        
   5740 ****       -15.5000   6.7500  24.0000 Du        
   5741 ****       -15.5000   6.7500  24.2500 Du        
   5742 ****       -15.5000   6.7500  24.7500 Du        
   5743 ****       -15.5000   6.7500  25.0000 Du        
   5744 ****       -15.5000   6.7500  25.2500 Du        
   5745 ****       -15.5000   6.7500  25.5000 Du        
   5746 ****       -15.5000   7.0000  25.0000 Du        
   5747 ****       -15.5000   7.0000  25.2500 Du        
   5748 ****       -15.2500 -11.5000   4.5000 Du        
   5749 ****       -15.2500 -11.2500   4.5000 Du        
   5750 ****       -15.2500 -11.0000   4.0000 Du        
   5751 ****       -15.2500 -11.0000   4.2500 Du        
   5752 ****       -15.2500 -11.0000   4.5000 Du        
   5753 ****       -15.2500 -10.7500   4.0000 Du        
   5754 ****       -15.2500 -10.7500   4.2500 Du        
   5755 ****       -15.2500 -10.5000   4.0000 Du        
   5756 ****       -15.2500 -10.2500   4.0000 Du        
   5757 ****       -15.2500 -10.0000   3.5000 Du        
   5758 ****       -15.2500 -10.0000   3.7500 Du        
   5759 ****       -15.2500  -7.0000   3.5000 Du        
   5760 ****       -15.2500  -7.0000   3.7500 Du        
   5761 ****       -15.2500  -6.7500   3.5000 Du        
   5762 ****       -15.2500  -6.7500   3.7500 Du        
   5763 ****       -15.2500  -6.7500   4.0000 Du        
   5764 ****       -15.2500  -6.5000   3.5000 Du        
   5765 ****       -15.2500  -6.5000   3.7500 Du        
   5766 ****       -15.2500  -6.5000   4.0000 Du        
   5767 ****       -15.2500  -6.2500   3.2500 Du        
   5768 ****       -15.2500  -6.2500   3.5000 Du        
   5769 ****       -15.2500  -6.2500   3.7500 Du        
   5770 ****       -15.2500  -6.2500   4.0000 Du        
   5771 ****       -15.2500  -6.2500   4.2500 Du        
   5772 ****       -15.2500  -6.0000   3.2500 Du        
   5773 ****       -15.2500  -6.0000   3.5000 Du        
   5774 ****       -15.2500  -6.0000   3.7500 Du        
   5775 ****       -15.2500  -6.0000   4.0000 Du        
   5776 ****       -15.2500  -6.0000   4.2500 Du        
   5777 ****       -15.2500  -5.7500   3.2500 Du        
   5778 ****       -15.2500  -5.7500   3.5000 Du        
   5779 ****       -15.2500  -5.7500   3.7500 Du        
   5780 ****       -15.2500  -5.7500   4.0000 Du        
   5781 ****       -15.2500  -5.7500   4.2500 Du        
   5782 ****       -15.2500  -5.7500   4.5000 Du        
   5783 ****       -15.2500  -5.5000   3.2500 Du        
   5784 ****       -15.2500  -5.5000   3.5000 Du        
   5785 ****       -15.2500  -5.5000   3.7500 Du        
   5786 ****       -15.2500  -5.5000   4.0000 Du        
   5787 ****       -15.2500  -5.5000   4.2500 Du        
   5788 ****       -15.2500  -5.5000   4.5000 Du        
   5789 ****       -15.2500  -5.2500   3.2500 Du        
   5790 ****       -15.2500  -5.2500   3.5000 Du        
   5791 ****       -15.2500  -5.2500   3.7500 Du        
   5792 ****       -15.2500  -5.2500   4.0000 Du        
   5793 ****       -15.2500  -5.2500   4.2500 Du        
   5794 ****       -15.2500  -5.2500   4.5000 Du        
   5795 ****       -15.2500  -5.2500   4.7500 Du        
   5796 ****       -15.2500  -5.0000   3.5000 Du        
   5797 ****       -15.2500  -5.0000   3.7500 Du        
   5798 ****       -15.2500  -5.0000   4.0000 Du        
   5799 ****       -15.2500  -5.0000   4.2500 Du        
   5800 ****       -15.2500  -5.0000   4.5000 Du        
   5801 ****       -15.2500  -5.0000   4.7500 Du        
   5802 ****       -15.2500  -5.0000   5.0000 Du        
   5803 ****       -15.2500  -4.7500   3.7500 Du        
   5804 ****       -15.2500  -4.7500   4.0000 Du        
   5805 ****       -15.2500  -4.7500   4.2500 Du        
   5806 ****       -15.2500  -4.7500   4.5000 Du        
   5807 ****       -15.2500  -4.7500   4.7500 Du        
   5808 ****       -15.2500  -4.7500   5.0000 Du        
   5809 ****       -15.2500  -4.7500   5.2500 Du        
   5810 ****       -15.2500  -4.5000   4.2500 Du        
   5811 ****       -15.2500  -4.5000   4.5000 Du        
   5812 ****       -15.2500  -4.5000   4.7500 Du        
   5813 ****       -15.2500  -4.5000   5.0000 Du        
   5814 ****       -15.2500  -4.5000   5.2500 Du        
   5815 ****       -15.2500  -4.5000   5.5000 Du        
   5816 ****       -15.2500  -4.2500   4.5000 Du        
   5817 ****       -15.2500  -4.2500   4.7500 Du        
   5818 ****       -15.2500  -4.2500   5.0000 Du        
   5819 ****       -15.2500  -4.2500   5.2500 Du        
   5820 ****       -15.2500  -4.2500   5.5000 Du        
   5821 ****       -15.2500  -4.0000   4.5000 Du        
   5822 ****       -15.2500  -4.0000   4.7500 Du        
   5823 ****       -15.2500  -4.0000   5.0000 Du        
   5824 ****       -15.2500  -4.0000   5.2500 Du        
   5825 ****       -15.2500  -3.7500   4.5000 Du        
   5826 ****       -15.2500  -3.7500   4.7500 Du        
   5827 ****       -15.2500  -3.7500   5.0000 Du        
   5828 ****       -15.2500  -3.7500   5.2500 Du        
   5829 ****       -15.2500   5.0000  23.5000 Du        
   5830 ****       -15.2500   5.0000  23.7500 Du        
   5831 ****       -15.2500   5.0000  24.0000 Du        
   5832 ****       -15.2500   5.0000  24.2500 Du        
   5833 ****       -15.2500   5.0000  24.5000 Du        
   5834 ****       -15.2500   5.0000  24.7500 Du        
   5835 ****       -15.2500   5.0000  25.0000 Du        
   5836 ****       -15.2500   5.2500  23.2500 Du        
   5837 ****       -15.2500   5.2500  23.5000 Du        
   5838 ****       -15.2500   5.2500  23.7500 Du        
   5839 ****       -15.2500   5.2500  24.0000 Du        
   5840 ****       -15.2500   5.2500  24.2500 Du        
   5841 ****       -15.2500   5.2500  24.5000 Du        
   5842 ****       -15.2500   5.2500  24.7500 Du        
   5843 ****       -15.2500   5.2500  25.0000 Du        
   5844 ****       -15.2500   5.2500  25.2500 Du        
   5845 ****       -15.2500   5.5000  23.5000 Du        
   5846 ****       -15.2500   5.5000  23.7500 Du        
   5847 ****       -15.2500   5.5000  24.0000 Du        
   5848 ****       -15.2500   5.5000  24.2500 Du        
   5849 ****       -15.2500   5.5000  24.5000 Du        
   5850 ****       -15.2500   5.5000  24.7500 Du        
   5851 ****       -15.2500   5.5000  25.0000 Du        
   5852 ****       -15.2500   5.5000  25.2500 Du        
   5853 ****       -15.2500   5.7500  23.2500 Du        
   5854 ****       -15.2500   5.7500  23.5000 Du        
   5855 ****       -15.2500   5.7500  23.7500 Du        
   5856 ****       -15.2500   5.7500  24.0000 Du        
   5857 ****       -15.2500   5.7500  24.2500 Du        
   5858 ****       -15.2500   5.7500  24.5000 Du        
   5859 ****       -15.2500   5.7500  24.7500 Du        
   5860 ****       -15.2500   5.7500  25.0000 Du        
   5861 ****       -15.2500   5.7500  25.2500 Du        
   5862 ****       -15.2500   6.0000  23.2500 Du        
   5863 ****       -15.2500   6.0000  23.5000 Du        
   5864 ****       -15.2500   6.0000  23.7500 Du        
   5865 ****       -15.2500   6.0000  24.0000 Du        
   5866 ****       -15.2500   6.0000  24.2500 Du        
   5867 ****       -15.2500   6.0000  24.5000 Du        
   5868 ****       -15.2500   6.0000  24.7500 Du        
   5869 ****       -15.2500   6.0000  25.0000 Du        
   5870 ****       -15.2500   6.0000  25.2500 Du        
   5871 ****       -15.2500   6.0000  25.5000 Du        
   5872 ****       -15.2500   6.0000  25.7500 Du        
   5873 ****       -15.2500   6.2500  23.5000 Du        
   5874 ****       -15.2500   6.2500  23.7500 Du        
   5875 ****       -15.2500   6.2500  24.0000 Du        
   5876 ****       -15.2500   6.2500  24.2500 Du        
   5877 ****       -15.2500   6.2500  24.5000 Du        
   5878 ****       -15.2500   6.2500  24.7500 Du        
   5879 ****       -15.2500   6.2500  25.0000 Du        
   5880 ****       -15.2500   6.2500  25.2500 Du        
   5881 ****       -15.2500   6.2500  25.5000 Du        
   5882 ****       -15.2500   6.2500  25.7500 Du        
   5883 ****       -15.2500   6.5000  23.7500 Du        
   5884 ****       -15.2500   6.5000  24.0000 Du        
   5885 ****       -15.2500   6.5000  24.2500 Du        
   5886 ****       -15.2500   6.5000  24.7500 Du        
   5887 ****       -15.2500   6.5000  25.0000 Du        
   5888 ****       -15.2500   6.5000  25.2500 Du        
   5889 ****       -15.2500   6.5000  25.5000 Du        
   5890 ****       -15.2500   6.5000  25.7500 Du        
   5891 ****       -15.2500   6.7500  25.0000 Du        
   5892 ****       -15.2500   6.7500  25.2500 Du        
   5893 ****       -15.2500   7.0000  25.2500 Du        
   5894 ****       -15.0000 -11.5000   4.5000 Du        
   5895 ****       -15.0000 -11.5000   4.7500 Du        
   5896 ****       -15.0000 -11.2500   4.5000 Du        
   5897 ****       -15.0000 -11.2500   4.7500 Du        
   5898 ****       -15.0000 -11.0000   4.0000 Du        
   5899 ****       -15.0000 -11.0000   4.2500 Du        
   5900 ****       -15.0000 -11.0000   4.5000 Du        
   5901 ****       -15.0000 -11.0000   4.7500 Du        
   5902 ****       -15.0000 -10.7500   4.0000 Du        
   5903 ****       -15.0000 -10.7500   4.2500 Du        
   5904 ****       -15.0000 -10.5000   4.0000 Du        
   5905 ****       -15.0000 -10.0000   3.5000 Du        
   5906 ****       -15.0000 -10.0000   3.7500 Du        
   5907 ****       -15.0000  -9.7500   3.5000 Du        
   5908 ****       -15.0000  -7.0000   3.2500 Du        
   5909 ****       -15.0000  -7.0000   3.5000 Du        
   5910 ****       -15.0000  -7.0000   3.7500 Du        
   5911 ****       -15.0000  -6.7500   3.2500 Du        
   5912 ****       -15.0000  -6.7500   3.5000 Du        
   5913 ****       -15.0000  -6.7500   3.7500 Du        
   5914 ****       -15.0000  -6.7500   4.0000 Du        
   5915 ****       -15.0000  -6.5000   3.2500 Du        
   5916 ****       -15.0000  -6.5000   3.5000 Du        
   5917 ****       -15.0000  -6.5000   3.7500 Du        
   5918 ****       -15.0000  -6.5000   4.0000 Du        
   5919 ****       -15.0000  -6.5000   4.2500 Du        
   5920 ****       -15.0000  -6.2500   3.0000 Du        
   5921 ****       -15.0000  -6.2500   3.2500 Du        
   5922 ****       -15.0000  -6.2500   3.5000 Du        
   5923 ****       -15.0000  -6.2500   3.7500 Du        
   5924 ****       -15.0000  -6.2500   4.0000 Du        
   5925 ****       -15.0000  -6.2500   4.2500 Du        
   5926 ****       -15.0000  -6.0000   3.2500 Du        
   5927 ****       -15.0000  -6.0000   3.5000 Du        
   5928 ****       -15.0000  -6.0000   3.7500 Du        
   5929 ****       -15.0000  -6.0000   4.0000 Du        
   5930 ****       -15.0000  -6.0000   4.2500 Du        
   5931 ****       -15.0000  -6.0000   4.5000 Du        
   5932 ****       -15.0000  -5.7500   3.5000 Du        
   5933 ****       -15.0000  -5.7500   3.7500 Du        
   5934 ****       -15.0000  -5.7500   4.0000 Du        
   5935 ****       -15.0000  -5.7500   4.2500 Du        
   5936 ****       -15.0000  -5.7500   4.5000 Du        
   5937 ****       -15.0000  -5.5000   3.5000 Du        
   5938 ****       -15.0000  -5.5000   3.7500 Du        
   5939 ****       -15.0000  -5.5000   4.0000 Du        
   5940 ****       -15.0000  -5.5000   4.2500 Du        
   5941 ****       -15.0000  -5.5000   4.5000 Du        
   5942 ****       -15.0000  -5.5000   4.7500 Du        
   5943 ****       -15.0000  -5.2500   3.5000 Du        
   5944 ****       -15.0000  -5.2500   3.7500 Du        
   5945 ****       -15.0000  -5.2500   4.0000 Du        
   5946 ****       -15.0000  -5.2500   4.2500 Du        
   5947 ****       -15.0000  -5.2500   4.5000 Du        
   5948 ****       -15.0000  -5.2500   4.7500 Du        
   5949 ****       -15.0000  -5.0000   3.7500 Du        
   5950 ****       -15.0000  -5.0000   4.0000 Du        
   5951 ****       -15.0000  -5.0000   4.2500 Du        
   5952 ****       -15.0000  -5.0000   4.5000 Du        
   5953 ****       -15.0000  -5.0000   4.7500 Du        
   5954 ****       -15.0000  -5.0000   5.0000 Du        
   5955 ****       -15.0000  -4.7500   4.0000 Du        
   5956 ****       -15.0000  -4.7500   4.2500 Du        
   5957 ****       -15.0000  -4.7500   4.5000 Du        
   5958 ****       -15.0000  -4.7500   4.7500 Du        
   5959 ****       -15.0000  -4.7500   5.0000 Du        
   5960 ****       -15.0000  -4.7500   5.2500 Du        
   5961 ****       -15.0000  -4.7500   5.5000 Du        
   5962 ****       -15.0000  -4.5000   4.5000 Du        
   5963 ****       -15.0000  -4.5000   4.7500 Du        
   5964 ****       -15.0000  -4.5000   5.0000 Du        
   5965 ****       -15.0000  -4.5000   5.2500 Du        
   5966 ****       -15.0000  -4.5000   5.5000 Du        
   5967 ****       -15.0000  -4.2500   4.5000 Du        
   5968 ****       -15.0000  -4.2500   4.7500 Du        
   5969 ****       -15.0000  -4.2500   5.0000 Du        
   5970 ****       -15.0000  -4.2500   5.2500 Du        
   5971 ****       -15.0000  -4.2500   5.5000 Du        
   5972 ****       -15.0000  -4.0000   4.5000 Du        
   5973 ****       -15.0000  -4.0000   4.7500 Du        
   5974 ****       -15.0000  -4.0000   5.0000 Du        
   5975 ****       -15.0000  -4.0000   5.2500 Du        
   5976 ****       -15.0000  -3.7500   4.7500 Du        
   5977 ****       -15.0000  -3.7500   5.0000 Du        
   5978 ****       -15.0000   5.0000  23.5000 Du        
   5979 ****       -15.0000   5.0000  23.7500 Du        
   5980 ****       -15.0000   5.0000  24.0000 Du        
   5981 ****       -15.0000   5.0000  24.2500 Du        
   5982 ****       -15.0000   5.0000  24.5000 Du        
   5983 ****       -15.0000   5.0000  24.7500 Du        
   5984 ****       -15.0000   5.0000  25.0000 Du        
   5985 ****       -15.0000   5.2500  23.2500 Du        
   5986 ****       -15.0000   5.2500  23.5000 Du        
   5987 ****       -15.0000   5.2500  23.7500 Du        
   5988 ****       -15.0000   5.2500  24.0000 Du        
   5989 ****       -15.0000   5.2500  24.2500 Du        
   5990 ****       -15.0000   5.2500  24.5000 Du        
   5991 ****       -15.0000   5.2500  24.7500 Du        
   5992 ****       -15.0000   5.2500  25.0000 Du        
   5993 ****       -15.0000   5.2500  25.2500 Du        
   5994 ****       -15.0000   5.5000  23.5000 Du        
   5995 ****       -15.0000   5.5000  23.7500 Du        
   5996 ****       -15.0000   5.5000  24.0000 Du        
   5997 ****       -15.0000   5.5000  24.2500 Du        
   5998 ****       -15.0000   5.5000  24.5000 Du        
   5999 ****       -15.0000   5.5000  24.7500 Du        
   6000 ****       -15.0000   5.5000  25.0000 Du        
   6001 ****       -15.0000   5.5000  25.2500 Du        
   6002 ****       -15.0000   5.7500  23.5000 Du        
   6003 ****       -15.0000   5.7500  23.7500 Du        
   6004 ****       -15.0000   5.7500  24.0000 Du        
   6005 ****       -15.0000   5.7500  24.2500 Du        
   6006 ****       -15.0000   5.7500  24.5000 Du        
   6007 ****       -15.0000   5.7500  24.7500 Du        
   6008 ****       -15.0000   5.7500  25.0000 Du        
   6009 ****       -15.0000   5.7500  25.2500 Du        
   6010 ****       -15.0000   6.0000  23.5000 Du        
   6011 ****       -15.0000   6.0000  23.7500 Du        
   6012 ****       -15.0000   6.0000  24.0000 Du        
   6013 ****       -15.0000   6.0000  24.2500 Du        
   6014 ****       -15.0000   6.0000  24.5000 Du        
   6015 ****       -15.0000   6.0000  24.7500 Du        
   6016 ****       -15.0000   6.0000  25.0000 Du        
   6017 ****       -15.0000   6.0000  25.2500 Du        
   6018 ****       -15.0000   6.0000  25.5000 Du        
   6019 ****       -15.0000   6.2500  23.7500 Du        
   6020 ****       -15.0000   6.2500  24.0000 Du        
   6021 ****       -15.0000   6.2500  24.2500 Du        
   6022 ****       -15.0000   6.2500  24.5000 Du        
   6023 ****       -15.0000   6.2500  24.7500 Du        
   6024 ****       -15.0000   6.2500  25.0000 Du        
   6025 ****       -15.0000   6.2500  25.2500 Du        
   6026 ****       -15.0000   6.2500  25.7500 Du        
   6027 ****       -14.7500 -11.5000   4.5000 Du        
   6028 ****       -14.7500 -11.5000   4.7500 Du        
   6029 ****       -14.7500 -11.5000   5.0000 Du        
   6030 ****       -14.7500 -11.2500   4.5000 Du        
   6031 ****       -14.7500 -11.2500   4.7500 Du        
   6032 ****       -14.7500 -11.2500   5.0000 Du        
   6033 ****       -14.7500 -11.0000   4.0000 Du        
   6034 ****       -14.7500 -11.0000   4.2500 Du        
   6035 ****       -14.7500 -11.0000   4.5000 Du        
   6036 ****       -14.7500 -11.0000   4.7500 Du        
   6037 ****       -14.7500 -10.7500   4.0000 Du        
   6038 ****       -14.7500 -10.7500   4.2500 Du        
   6039 ****       -14.7500 -10.5000   4.0000 Du        
   6040 ****       -14.7500 -10.0000   3.5000 Du        
   6041 ****       -14.7500 -10.0000   3.7500 Du        
   6042 ****       -14.7500  -9.7500   3.5000 Du        
   6043 ****       -14.7500  -7.2500   3.2500 Du        
   6044 ****       -14.7500  -7.2500   3.5000 Du        
   6045 ****       -14.7500  -7.0000   3.2500 Du        
   6046 ****       -14.7500  -7.0000   3.5000 Du        
   6047 ****       -14.7500  -7.0000   3.7500 Du        
   6048 ****       -14.7500  -6.7500   3.2500 Du        
   6049 ****       -14.7500  -6.7500   3.5000 Du        
   6050 ****       -14.7500  -6.7500   3.7500 Du        
   6051 ****       -14.7500  -6.7500   4.0000 Du        
   6052 ****       -14.7500  -6.5000   3.0000 Du        
   6053 ****       -14.7500  -6.5000   3.2500 Du        
   6054 ****       -14.7500  -6.5000   3.5000 Du        
   6055 ****       -14.7500  -6.5000   3.7500 Du        
   6056 ****       -14.7500  -6.5000   4.0000 Du        
   6057 ****       -14.7500  -6.5000   4.2500 Du        
   6058 ****       -14.7500  -6.2500   3.2500 Du        
   6059 ****       -14.7500  -6.2500   3.5000 Du        
   6060 ****       -14.7500  -6.2500   3.7500 Du        
   6061 ****       -14.7500  -6.2500   4.0000 Du        
   6062 ****       -14.7500  -6.2500   4.2500 Du        
   6063 ****       -14.7500  -6.0000   3.5000 Du        
   6064 ****       -14.7500  -6.0000   3.7500 Du        
   6065 ****       -14.7500  -6.0000   4.0000 Du        
   6066 ****       -14.7500  -6.0000   4.2500 Du        
   6067 ****       -14.7500  -6.0000   4.5000 Du        
   6068 ****       -14.7500  -5.7500   3.5000 Du        
   6069 ****       -14.7500  -5.7500   3.7500 Du        
   6070 ****       -14.7500  -5.7500   4.0000 Du        
   6071 ****       -14.7500  -5.7500   4.2500 Du        
   6072 ****       -14.7500  -5.7500   4.5000 Du        
   6073 ****       -14.7500  -5.7500   4.7500 Du        
   6074 ****       -14.7500  -5.5000   3.7500 Du        
   6075 ****       -14.7500  -5.5000   4.0000 Du        
   6076 ****       -14.7500  -5.5000   4.2500 Du        
   6077 ****       -14.7500  -5.5000   4.5000 Du        
   6078 ****       -14.7500  -5.5000   4.7500 Du        
   6079 ****       -14.7500  -5.2500   3.7500 Du        
   6080 ****       -14.7500  -5.2500   4.0000 Du        
   6081 ****       -14.7500  -5.2500   4.2500 Du        
   6082 ****       -14.7500  -5.2500   4.5000 Du        
   6083 ****       -14.7500  -5.2500   4.7500 Du        
   6084 ****       -14.7500  -5.2500   5.0000 Du        
   6085 ****       -14.7500  -5.0000   4.0000 Du        
   6086 ****       -14.7500  -5.0000   4.2500 Du        
   6087 ****       -14.7500  -5.0000   4.5000 Du        
   6088 ****       -14.7500  -5.0000   4.7500 Du        
   6089 ****       -14.7500  -5.0000   5.0000 Du        
   6090 ****       -14.7500  -5.0000   5.2500 Du        
   6091 ****       -14.7500  -4.7500   4.2500 Du        
   6092 ****       -14.7500  -4.7500   4.5000 Du        
   6093 ****       -14.7500  -4.7500   4.7500 Du        
   6094 ****       -14.7500  -4.7500   5.0000 Du        
   6095 ****       -14.7500  -4.7500   5.2500 Du        
   6096 ****       -14.7500  -4.7500   5.5000 Du        
   6097 ****       -14.7500  -4.5000   4.5000 Du        
   6098 ****       -14.7500  -4.5000   4.7500 Du        
   6099 ****       -14.7500  -4.5000   5.0000 Du        
   6100 ****       -14.7500  -4.5000   5.2500 Du        
   6101 ****       -14.7500  -4.5000   5.5000 Du        
   6102 ****       -14.7500  -4.2500   4.7500 Du        
   6103 ****       -14.7500  -4.2500   5.0000 Du        
   6104 ****       -14.7500  -4.2500   5.2500 Du        
   6105 ****       -14.7500  -4.0000   4.7500 Du        
   6106 ****       -14.7500  -4.0000   5.0000 Du        
   6107 ****       -14.7500  -4.0000   5.2500 Du        
   6108 ****       -14.7500  -3.7500   5.0000 Du        
   6109 ****       -14.7500   5.0000  23.5000 Du        
   6110 ****       -14.7500   5.0000  23.7500 Du        
   6111 ****       -14.7500   5.0000  24.0000 Du        
   6112 ****       -14.7500   5.0000  24.2500 Du        
   6113 ****       -14.7500   5.0000  24.5000 Du        
   6114 ****       -14.7500   5.0000  24.7500 Du        
   6115 ****       -14.7500   5.0000  25.0000 Du        
   6116 ****       -14.7500   5.2500  23.2500 Du        
   6117 ****       -14.7500   5.2500  23.5000 Du        
   6118 ****       -14.7500   5.2500  23.7500 Du        
   6119 ****       -14.7500   5.2500  24.0000 Du        
   6120 ****       -14.7500   5.2500  24.2500 Du        
   6121 ****       -14.7500   5.2500  24.5000 Du        
   6122 ****       -14.7500   5.2500  24.7500 Du        
   6123 ****       -14.7500   5.2500  25.0000 Du        
   6124 ****       -14.7500   5.2500  25.2500 Du        
   6125 ****       -14.7500   5.5000  23.5000 Du        
   6126 ****       -14.7500   5.5000  23.7500 Du        
   6127 ****       -14.7500   5.5000  24.0000 Du        
   6128 ****       -14.7500   5.5000  24.2500 Du        
   6129 ****       -14.7500   5.5000  24.5000 Du        
   6130 ****       -14.7500   5.5000  24.7500 Du        
   6131 ****       -14.7500   5.5000  25.0000 Du        
   6132 ****       -14.7500   5.5000  25.2500 Du        
   6133 ****       -14.7500   5.7500  23.7500 Du        
   6134 ****       -14.7500   5.7500  24.0000 Du        
   6135 ****       -14.7500   5.7500  24.2500 Du        
   6136 ****       -14.7500   5.7500  24.5000 Du        
   6137 ****       -14.7500   5.7500  24.7500 Du        
   6138 ****       -14.7500   5.7500  25.0000 Du        
   6139 ****       -14.7500   5.7500  25.2500 Du        
   6140 ****       -14.7500   6.0000  24.2500 Du        
   6141 ****       -14.7500   6.0000  24.5000 Du        
   6142 ****       -14.7500   6.0000  24.7500 Du        
   6143 ****       -14.7500   6.0000  25.0000 Du        
   6144 ****       -14.7500   6.0000  25.2500 Du        
   6145 ****       -14.7500   6.2500  25.0000 Du        
   6146 ****       -14.5000 -11.7500   5.0000 Du        
   6147 ****       -14.5000 -11.5000   4.5000 Du        
   6148 ****       -14.5000 -11.5000   4.7500 Du        
   6149 ****       -14.5000 -11.5000   5.0000 Du        
   6150 ****       -14.5000 -11.5000   5.2500 Du        
   6151 ****       -14.5000 -11.2500   4.5000 Du        
   6152 ****       -14.5000 -11.2500   4.7500 Du        
   6153 ****       -14.5000 -11.2500   5.0000 Du        
   6154 ****       -14.5000 -11.0000   4.0000 Du        
   6155 ****       -14.5000 -11.0000   4.2500 Du        
   6156 ****       -14.5000 -11.0000   4.5000 Du        
   6157 ****       -14.5000 -11.0000   4.7500 Du        
   6158 ****       -14.5000 -10.7500   4.0000 Du        
   6159 ****       -14.5000 -10.7500   4.2500 Du        
   6160 ****       -14.5000 -10.7500   4.5000 Du        
   6161 ****       -14.5000 -10.5000   4.0000 Du        
   6162 ****       -14.5000 -10.5000   4.2500 Du        
   6163 ****       -14.5000 -10.2500   4.0000 Du        
   6164 ****       -14.5000 -10.0000   3.5000 Du        
   6165 ****       -14.5000 -10.0000   3.7500 Du        
   6166 ****       -14.5000  -9.7500   3.5000 Du        
   6167 ****       -14.5000  -6.5000   3.5000 Du        
   6168 ****       -14.5000  -6.5000   3.7500 Du        
   6169 ****       -14.5000  -6.5000   4.0000 Du        
   6170 ****       -14.5000  -6.2500   3.7500 Du        
   6171 ****       -14.5000  -6.2500   4.0000 Du        
   6172 ****       -14.5000  -6.0000   3.7500 Du        
   6173 ****       -14.5000  -6.0000   4.0000 Du        
   6174 ****       -14.5000  -6.0000   4.2500 Du        
   6175 ****       -14.5000  -5.7500   4.0000 Du        
   6176 ****       -14.5000  -5.7500   4.2500 Du        
   6177 ****       -14.5000  -4.7500   5.0000 Du        
   6178 ****       -14.5000   5.2500  24.2500 Du        
   6179 ****       -14.2500 -11.7500   5.0000 Du        
   6180 ****       -14.2500 -11.5000   4.5000 Du        
   6181 ****       -14.2500 -11.5000   4.7500 Du        
   6182 ****       -14.2500 -11.5000   5.0000 Du        
   6183 ****       -14.2500 -11.5000   5.2500 Du        
   6184 ****       -14.2500 -11.2500   4.5000 Du        
   6185 ****       -14.2500 -11.2500   4.7500 Du        
   6186 ****       -14.2500 -11.2500   5.0000 Du        
   6187 ****       -14.2500 -11.0000   4.0000 Du        
   6188 ****       -14.2500 -11.0000   4.2500 Du        
   6189 ****       -14.2500 -11.0000   4.5000 Du        
   6190 ****       -14.2500 -11.0000   4.7500 Du        
   6191 ****       -14.2500 -11.0000   5.0000 Du        
   6192 ****       -14.2500 -10.7500   4.0000 Du        
   6193 ****       -14.2500 -10.7500   4.2500 Du        
   6194 ****       -14.2500 -10.7500   4.5000 Du        
   6195 ****       -14.2500 -10.5000   4.0000 Du        
   6196 ****       -14.2500 -10.5000   4.2500 Du        
   6197 ****       -14.2500 -10.2500   4.0000 Du        
   6198 ****       -14.2500 -10.0000   3.5000 Du        
   6199 ****       -14.2500 -10.0000   3.7500 Du        
   6200 ****       -14.2500  -9.7500   3.5000 Du        
   6201 ****       -14.2500  -9.7500   3.7500 Du        
   6202 ****       -14.2500  -9.5000   3.5000 Du        
   6203 ****       -14.2500  -6.5000   4.0000 Du        
   6204 ****       -14.2500  -6.2500   3.7500 Du        
   6205 ****       -14.2500  -6.2500   4.0000 Du        
   6206 ****       -14.2500  -6.0000   4.0000 Du        
   6207 ****       -14.0000 -11.5000   4.5000 Du        
   6208 ****       -14.0000 -11.5000   4.7500 Du        
   6209 ****       -14.0000 -11.2500   4.5000 Du        
   6210 ****       -14.0000 -11.2500   4.7500 Du        
   6211 ****       -14.0000 -11.2500   5.0000 Du        
   6212 ****       -14.0000 -11.0000   4.0000 Du        
   6213 ****       -14.0000 -11.0000   4.2500 Du        
   6214 ****       -14.0000 -11.0000   4.5000 Du        
   6215 ****       -14.0000 -11.0000   4.7500 Du        
   6216 ****       -14.0000 -11.0000   5.0000 Du        
   6217 ****       -14.0000 -10.7500   4.0000 Du        
   6218 ****       -14.0000 -10.7500   4.2500 Du        
   6219 ****       -14.0000 -10.7500   4.5000 Du        
   6220 ****       -14.0000 -10.7500   4.7500 Du        
   6221 ****       -14.0000 -10.5000   4.0000 Du        
   6222 ****       -14.0000 -10.5000   4.2500 Du        
   6223 ****       -14.0000 -10.5000   4.5000 Du        
   6224 ****       -14.0000 -10.2500   4.0000 Du        
   6225 ****       -14.0000 -10.2500   4.2500 Du        
   6226 ****       -14.0000 -10.0000   3.5000 Du        
   6227 ****       -14.0000 -10.0000   3.7500 Du        
   6228 ****       -14.0000 -10.0000   4.0000 Du        
   6229 ****       -14.0000  -9.7500   3.5000 Du        
   6230 ****       -14.0000  -9.7500   3.7500 Du        
   6231 ****       -14.0000  -9.5000   3.5000 Du        
   6232 ****       -14.0000  -9.2500   3.5000 Du        
   6233 ****       -13.7500 -11.0000   4.5000 Du        
   6234 ****       -13.7500 -11.0000   4.7500 Du        
   6235 ****       -13.7500 -10.7500   4.5000 Du        
   6236 ****       -13.7500 -10.7500   4.7500 Du        
   6237 ****       -13.7500 -10.5000   4.0000 Du        
   6238 ****       -13.7500 -10.5000   4.2500 Du        
   6239 ****       -13.7500 -10.5000   4.5000 Du        
   6240 ****       -13.7500 -10.2500   4.0000 Du        
   6241 ****       -13.7500 -10.2500   4.2500 Du        
   6242 ****       -13.7500 -10.0000   3.5000 Du        
   6243 ****       -13.7500 -10.0000   3.7500 Du        
   6244 ****       -13.7500 -10.0000   4.0000 Du        
   6245 ****       -13.7500  -9.7500   3.5000 Du        
   6246 ****       -13.7500  -9.7500   3.7500 Du        
   6247 ****       -13.7500  -9.7500   4.0000 Du        
   6248 ****       -13.7500  -9.5000   3.5000 Du        
   6249 ****       -13.7500  -9.5000   3.7500 Du        
   6250 ****       -13.7500  -9.2500   3.5000 Du        
   6251 ****       -13.7500  -9.0000   3.5000 Du        
   6252 ****       -13.7500  -8.7500   3.5000 Du        
   6253 ****       -13.7500   2.0000  20.7500 Du        
   6254 ****       -13.7500   2.0000  21.0000 Du        
   6255 ****       -13.7500   2.2500  20.5000 Du        
   6256 ****       -13.7500   2.2500  20.7500 Du        
   6257 ****       -13.7500   2.2500  21.0000 Du        
   6258 ****       -13.5000 -10.7500   4.5000 Du        
   6259 ****       -13.5000 -10.5000   4.0000 Du        
   6260 ****       -13.5000 -10.5000   4.2500 Du        
   6261 ****       -13.5000 -10.5000   4.5000 Du        
   6262 ****       -13.5000 -10.2500   4.0000 Du        
   6263 ****       -13.5000 -10.2500   4.2500 Du        
   6264 ****       -13.5000 -10.2500   4.5000 Du        
   6265 ****       -13.5000 -10.0000   3.5000 Du        
   6266 ****       -13.5000 -10.0000   3.7500 Du        
   6267 ****       -13.5000 -10.0000   4.0000 Du        
   6268 ****       -13.5000 -10.0000   4.2500 Du        
   6269 ****       -13.5000  -9.7500   3.5000 Du        
   6270 ****       -13.5000  -9.7500   3.7500 Du        
   6271 ****       -13.5000  -9.7500   4.0000 Du        
   6272 ****       -13.5000  -9.5000   3.5000 Du        
   6273 ****       -13.5000  -9.5000   3.7500 Du        
   6274 ****       -13.5000  -9.2500   3.5000 Du        
   6275 ****       -13.5000  -9.2500   3.7500 Du        
   6276 ****       -13.5000  -9.0000   3.2500 Du        
   6277 ****       -13.5000  -9.0000   3.5000 Du        
   6278 ****       -13.5000  -8.7500   3.2500 Du        
   6279 ****       -13.5000  -8.7500   3.5000 Du        
   6280 ****       -13.5000   1.7500  21.0000 Du        
   6281 ****       -13.5000   1.7500  21.2500 Du        
   6282 ****       -13.5000   2.0000  21.0000 Du        
   6283 ****       -13.5000   2.0000  21.2500 Du        
   6284 ****       -13.5000   2.2500  21.0000 Du        
   6285 ****       -13.5000   2.2500  21.2500 Du        
   6286 ****       -13.2500 -10.7500   4.5000 Du        
   6287 ****       -13.2500 -10.5000   4.0000 Du        
   6288 ****       -13.2500 -10.5000   4.2500 Du        
   6289 ****       -13.2500 -10.5000   4.5000 Du        
   6290 ****       -13.2500 -10.2500   4.0000 Du        
   6291 ****       -13.2500 -10.2500   4.2500 Du        
   6292 ****       -13.2500 -10.2500   4.5000 Du        
   6293 ****       -13.2500 -10.2500   4.7500 Du        
   6294 ****       -13.2500 -10.0000   4.0000 Du        
   6295 ****       -13.2500 -10.0000   4.2500 Du        
   6296 ****       -13.2500 -10.0000   4.5000 Du        
   6297 ****       -13.2500  -9.7500   4.0000 Du        
   6298 ****       -13.2500  -9.7500   4.2500 Du        
   6299 ****       -13.2500  -9.5000   3.5000 Du        
   6300 ****       -13.2500  -9.5000   3.7500 Du        
   6301 ****       -13.2500  -9.5000   4.0000 Du        
   6302 ****       -13.2500  -9.2500   3.5000 Du        
   6303 ****       -13.2500  -9.2500   3.7500 Du        
   6304 ****       -13.2500  -9.2500   4.0000 Du        
   6305 ****       -13.2500  -9.0000   3.0000 Du        
   6306 ****       -13.2500  -9.0000   3.2500 Du        
   6307 ****       -13.2500  -9.0000   3.5000 Du        
   6308 ****       -13.2500  -9.0000   3.7500 Du        
   6309 ****       -13.2500  -9.0000   4.0000 Du        
   6310 ****       -13.2500  -8.7500   3.2500 Du        
   6311 ****       -13.2500  -8.7500   3.5000 Du        
   6312 ****       -13.2500  -8.7500   3.7500 Du        
   6313 ****       -13.2500  -8.5000   3.5000 Du        
   6314 ****       -13.2500   0.7500  21.7500 Du        
   6315 ****       -13.2500   1.0000  21.5000 Du        
   6316 ****       -13.2500   1.0000  21.7500 Du        
   6317 ****       -13.2500   1.2500  21.2500 Du        
   6318 ****       -13.2500   1.2500  21.5000 Du        
   6319 ****       -13.2500   1.2500  21.7500 Du        
   6320 ****       -13.2500   1.5000  21.0000 Du        
   6321 ****       -13.2500   1.5000  21.2500 Du        
   6322 ****       -13.2500   1.5000  21.5000 Du        
   6323 ****       -13.2500   1.5000  21.7500 Du        
   6324 ****       -13.2500   1.7500  21.0000 Du        
   6325 ****       -13.2500   1.7500  21.2500 Du        
   6326 ****       -13.2500   1.7500  21.5000 Du        
   6327 ****       -13.2500   1.7500  21.7500 Du        
   6328 ****       -13.2500   2.0000  21.0000 Du        
   6329 ****       -13.2500   2.0000  21.2500 Du        
   6330 ****       -13.2500   2.0000  21.5000 Du        
   6331 ****       -13.2500   2.2500  21.0000 Du        
   6332 ****       -13.2500   2.2500  21.2500 Du        
   6333 ****       -13.0000 -10.5000   4.0000 Du        
   6334 ****       -13.0000 -10.5000   4.2500 Du        
   6335 ****       -13.0000 -10.5000   4.5000 Du        
   6336 ****       -13.0000 -10.2500   4.0000 Du        
   6337 ****       -13.0000 -10.2500   4.2500 Du        
   6338 ****       -13.0000 -10.2500   4.5000 Du        
   6339 ****       -13.0000 -10.2500   4.7500 Du        
   6340 ****       -13.0000 -10.0000   4.0000 Du        
   6341 ****       -13.0000 -10.0000   4.2500 Du        
   6342 ****       -13.0000 -10.0000   4.5000 Du        
   6343 ****       -13.0000 -10.0000   4.7500 Du        
   6344 ****       -13.0000  -9.7500   4.0000 Du        
   6345 ****       -13.0000  -9.7500   4.2500 Du        
   6346 ****       -13.0000  -9.7500   4.5000 Du        
   6347 ****       -13.0000  -9.7500   4.7500 Du        
   6348 ****       -13.0000  -9.5000   3.5000 Du        
   6349 ****       -13.0000  -9.5000   3.7500 Du        
   6350 ****       -13.0000  -9.5000   4.0000 Du        
   6351 ****       -13.0000  -9.5000   4.2500 Du        
   6352 ****       -13.0000  -9.5000   4.5000 Du        
   6353 ****       -13.0000  -9.2500   3.5000 Du        
   6354 ****       -13.0000  -9.2500   3.7500 Du        
   6355 ****       -13.0000  -9.2500   4.0000 Du        
   6356 ****       -13.0000  -9.2500   4.2500 Du        
   6357 ****       -13.0000  -9.0000   3.0000 Du        
   6358 ****       -13.0000  -9.0000   3.2500 Du        
   6359 ****       -13.0000  -9.0000   3.5000 Du        
   6360 ****       -13.0000  -9.0000   3.7500 Du        
   6361 ****       -13.0000  -9.0000   4.0000 Du        
   6362 ****       -13.0000  -9.0000   4.2500 Du        
   6363 ****       -13.0000  -8.7500   3.0000 Du        
   6364 ****       -13.0000  -8.7500   3.2500 Du        
   6365 ****       -13.0000  -8.7500   3.5000 Du        
   6366 ****       -13.0000  -8.7500   3.7500 Du        
   6367 ****       -13.0000  -8.7500   4.0000 Du        
   6368 ****       -13.0000   0.5000  21.7500 Du        
   6369 ****       -13.0000   0.7500  21.5000 Du        
   6370 ****       -13.0000   0.7500  21.7500 Du        
   6371 ****       -13.0000   0.7500  22.0000 Du        
   6372 ****       -13.0000   1.0000  21.5000 Du        
   6373 ****       -13.0000   1.0000  21.7500 Du        
   6374 ****       -13.0000   1.0000  22.0000 Du        
   6375 ****       -13.0000   1.2500  21.2500 Du        
   6376 ****       -13.0000   1.2500  21.5000 Du        
   6377 ****       -13.0000   1.2500  21.7500 Du        
   6378 ****       -13.0000   1.5000  21.0000 Du        
   6379 ****       -13.0000   1.5000  21.2500 Du        
   6380 ****       -13.0000   1.5000  21.5000 Du        
   6381 ****       -13.0000   1.5000  21.7500 Du        
   6382 ****       -13.0000   1.5000  22.0000 Du        
   6383 ****       -13.0000   1.7500  21.0000 Du        
   6384 ****       -13.0000   1.7500  21.2500 Du        
   6385 ****       -13.0000   1.7500  21.5000 Du        
   6386 ****       -13.0000   1.7500  21.7500 Du        
   6387 ****       -13.0000   1.7500  22.0000 Du        
   6388 ****       -13.0000   2.0000  21.2500 Du        
   6389 ****       -13.0000   2.0000  21.5000 Du        
   6390 ****       -13.0000   2.0000  21.7500 Du        
   6391 ****       -12.7500 -10.2500   4.5000 Du        
   6392 ****       -12.7500 -10.0000   4.0000 Du        
   6393 ****       -12.7500 -10.0000   4.2500 Du        
   6394 ****       -12.7500 -10.0000   4.5000 Du        
   6395 ****       -12.7500 -10.0000   4.7500 Du        
   6396 ****       -12.7500  -9.7500   4.0000 Du        
   6397 ****       -12.7500  -9.7500   4.2500 Du        
   6398 ****       -12.7500  -9.7500   4.5000 Du        
   6399 ****       -12.7500  -9.7500   4.7500 Du        
   6400 ****       -12.7500  -9.5000   3.5000 Du        
   6401 ****       -12.7500  -9.5000   3.7500 Du        
   6402 ****       -12.7500  -9.5000   4.0000 Du        
   6403 ****       -12.7500  -9.5000   4.2500 Du        
   6404 ****       -12.7500  -9.5000   4.5000 Du        
   6405 ****       -12.7500  -9.5000   4.7500 Du        
   6406 ****       -12.7500  -9.2500   3.5000 Du        
   6407 ****       -12.7500  -9.2500   3.7500 Du        
   6408 ****       -12.7500  -9.2500   4.0000 Du        
   6409 ****       -12.7500  -9.2500   4.2500 Du        
   6410 ****       -12.7500  -9.2500   4.5000 Du        
   6411 ****       -12.7500  -9.0000   3.5000 Du        
   6412 ****       -12.7500  -9.0000   3.7500 Du        
   6413 ****       -12.7500  -9.0000   4.0000 Du        
   6414 ****       -12.7500  -9.0000   4.2500 Du        
   6415 ****       -12.7500  -9.0000   4.5000 Du        
   6416 ****       -12.7500  -8.7500   3.5000 Du        
   6417 ****       -12.7500  -8.7500   3.7500 Du        
   6418 ****       -12.7500  -8.7500   4.0000 Du        
   6419 ****       -12.7500  -4.0000  24.5000 Du        
   6420 ****       -12.7500  -3.7500  11.2500 Du        
   6421 ****       -12.7500  -3.7500  11.5000 Du        
   6422 ****       -12.7500  -3.7500  11.7500 Du        
   6423 ****       -12.7500  -3.7500  24.5000 Du        
   6424 ****       -12.7500  -3.7500  24.7500 Du        
   6425 ****       -12.7500  -3.5000  11.5000 Du        
   6426 ****       -12.7500  -3.5000  11.7500 Du        
   6427 ****       -12.7500  -3.5000  24.5000 Du        
   6428 ****       -12.7500  -3.2500  11.5000 Du        
   6429 ****       -12.7500  -3.2500  11.7500 Du        
   6430 ****       -12.7500  -3.0000  11.2500 Du        
   6431 ****       -12.7500  -3.0000  11.5000 Du        
   6432 ****       -12.7500   0.2500  21.7500 Du        
   6433 ****       -12.7500   0.2500  22.0000 Du        
   6434 ****       -12.7500   0.5000  21.7500 Du        
   6435 ****       -12.7500   0.5000  22.0000 Du        
   6436 ****       -12.7500   0.7500  21.5000 Du        
   6437 ****       -12.7500   0.7500  21.7500 Du        
   6438 ****       -12.7500   0.7500  22.0000 Du        
   6439 ****       -12.7500   1.0000  21.5000 Du        
   6440 ****       -12.7500   1.0000  21.7500 Du        
   6441 ****       -12.7500   1.2500  21.2500 Du        
   6442 ****       -12.7500   1.2500  21.5000 Du        
   6443 ****       -12.7500   1.2500  21.7500 Du        
   6444 ****       -12.7500   1.5000  21.5000 Du        
   6445 ****       -12.7500   1.5000  21.7500 Du        
   6446 ****       -12.5000 -10.0000   4.0000 Du        
   6447 ****       -12.5000 -10.0000   4.2500 Du        
   6448 ****       -12.5000 -10.0000   4.5000 Du        
   6449 ****       -12.5000 -10.0000   4.7500 Du        
   6450 ****       -12.5000  -9.7500   4.0000 Du        
   6451 ****       -12.5000  -9.7500   4.2500 Du        
   6452 ****       -12.5000  -9.7500   4.5000 Du        
   6453 ****       -12.5000  -9.7500   4.7500 Du        
   6454 ****       -12.5000  -9.7500   5.0000 Du        
   6455 ****       -12.5000  -9.5000   3.5000 Du        
   6456 ****       -12.5000  -9.5000   3.7500 Du        
   6457 ****       -12.5000  -9.5000   4.0000 Du        
   6458 ****       -12.5000  -9.5000   4.2500 Du        
   6459 ****       -12.5000  -9.5000   4.5000 Du        
   6460 ****       -12.5000  -9.5000   4.7500 Du        
   6461 ****       -12.5000  -9.5000   5.0000 Du        
   6462 ****       -12.5000  -9.2500   3.5000 Du        
   6463 ****       -12.5000  -9.2500   3.7500 Du        
   6464 ****       -12.5000  -9.2500   4.0000 Du        
   6465 ****       -12.5000  -9.2500   4.2500 Du        
   6466 ****       -12.5000  -9.2500   4.5000 Du        
   6467 ****       -12.5000  -9.2500   4.7500 Du        
   6468 ****       -12.5000  -9.0000   3.5000 Du        
   6469 ****       -12.5000  -9.0000   3.7500 Du        
   6470 ****       -12.5000  -9.0000   4.0000 Du        
   6471 ****       -12.5000  -9.0000   4.2500 Du        
   6472 ****       -12.5000  -9.0000   4.5000 Du        
   6473 ****       -12.5000  -3.7500  11.0000 Du        
   6474 ****       -12.5000  -3.7500  11.2500 Du        
   6475 ****       -12.5000  -3.7500  11.5000 Du        
   6476 ****       -12.5000  -3.7500  11.7500 Du        
   6477 ****       -12.5000  -3.7500  12.0000 Du        
   6478 ****       -12.5000  -3.7500  24.5000 Du        
   6479 ****       -12.5000  -3.5000  11.0000 Du        
   6480 ****       -12.5000  -3.5000  11.2500 Du        
   6481 ****       -12.5000  -3.5000  11.5000 Du        
   6482 ****       -12.5000  -3.5000  11.7500 Du        
   6483 ****       -12.5000  -3.5000  24.2500 Du        
   6484 ****       -12.5000  -3.5000  24.5000 Du        
   6485 ****       -12.5000  -3.5000  24.7500 Du        
   6486 ****       -12.5000  -3.2500  11.0000 Du        
   6487 ****       -12.5000  -3.2500  11.2500 Du        
   6488 ****       -12.5000  -3.2500  11.5000 Du        
   6489 ****       -12.5000  -3.2500  11.7500 Du        
   6490 ****       -12.5000  -3.2500  24.2500 Du        
   6491 ****       -12.5000  -3.2500  24.5000 Du        
   6492 ****       -12.5000  -3.0000  11.0000 Du        
   6493 ****       -12.5000  -3.0000  11.2500 Du        
   6494 ****       -12.5000  -3.0000  11.5000 Du        
   6495 ****       -12.5000  -3.0000  11.7500 Du        
   6496 ****       -12.5000  -2.7500  11.2500 Du        
   6497 ****       -12.5000  -2.7500  11.5000 Du        
   6498 ****       -12.2500 -10.0000   4.5000 Du        
   6499 ****       -12.2500 -10.0000   4.7500 Du        
   6500 ****       -12.2500  -9.7500   4.5000 Du        
   6501 ****       -12.2500  -9.7500   4.7500 Du        
   6502 ****       -12.2500  -9.7500   5.0000 Du        
   6503 ****       -12.2500  -9.5000   4.0000 Du        
   6504 ****       -12.2500  -9.5000   4.2500 Du        
   6505 ****       -12.2500  -9.5000   4.5000 Du        
   6506 ****       -12.2500  -9.5000   4.7500 Du        
   6507 ****       -12.2500  -9.5000   5.0000 Du        
   6508 ****       -12.2500  -9.2500   4.0000 Du        
   6509 ****       -12.2500  -9.2500   4.2500 Du        
   6510 ****       -12.2500  -9.2500   4.5000 Du        
   6511 ****       -12.2500  -9.2500   4.7500 Du        
   6512 ****       -12.2500  -9.2500   5.0000 Du        
   6513 ****       -12.2500  -9.0000   3.5000 Du        
   6514 ****       -12.2500  -9.0000   3.7500 Du        
   6515 ****       -12.2500  -9.0000   4.0000 Du        
   6516 ****       -12.2500  -9.0000   4.2500 Du        
   6517 ****       -12.2500  -9.0000   4.5000 Du        
   6518 ****       -12.2500  -9.0000   4.7500 Du        
   6519 ****       -12.2500  -4.2500  10.0000 Du        
   6520 ****       -12.2500  -4.2500  10.2500 Du        
   6521 ****       -12.2500  -4.0000  10.0000 Du        
   6522 ****       -12.2500  -4.0000  10.2500 Du        
   6523 ****       -12.2500  -4.0000  10.5000 Du        
   6524 ****       -12.2500  -4.0000  10.7500 Du        
   6525 ****       -12.2500  -4.0000  11.0000 Du        
   6526 ****       -12.2500  -4.0000  11.2500 Du        
   6527 ****       -12.2500  -3.7500  10.5000 Du        
   6528 ****       -12.2500  -3.7500  10.7500 Du        
   6529 ****       -12.2500  -3.7500  11.0000 Du        
   6530 ****       -12.2500  -3.7500  11.2500 Du        
   6531 ****       -12.2500  -3.7500  11.5000 Du        
   6532 ****       -12.2500  -3.7500  11.7500 Du        
   6533 ****       -12.2500  -3.7500  12.0000 Du        
   6534 ****       -12.2500  -3.7500  12.2500 Du        
   6535 ****       -12.2500  -3.5000  10.5000 Du        
   6536 ****       -12.2500  -3.5000  10.7500 Du        
   6537 ****       -12.2500  -3.5000  11.0000 Du        
   6538 ****       -12.2500  -3.5000  11.2500 Du        
   6539 ****       -12.2500  -3.5000  11.5000 Du        
   6540 ****       -12.2500  -3.5000  11.7500 Du        
   6541 ****       -12.2500  -3.5000  12.0000 Du        
   6542 ****       -12.2500  -3.5000  24.2500 Du        
   6543 ****       -12.2500  -3.5000  24.5000 Du        
   6544 ****       -12.2500  -3.5000  24.7500 Du        
   6545 ****       -12.2500  -3.2500  10.7500 Du        
   6546 ****       -12.2500  -3.2500  11.0000 Du        
   6547 ****       -12.2500  -3.2500  11.2500 Du        
   6548 ****       -12.2500  -3.2500  11.5000 Du        
   6549 ****       -12.2500  -3.2500  11.7500 Du        
   6550 ****       -12.2500  -3.2500  12.0000 Du        
   6551 ****       -12.2500  -3.2500  24.0000 Du        
   6552 ****       -12.2500  -3.2500  24.2500 Du        
   6553 ****       -12.2500  -3.2500  24.5000 Du        
   6554 ****       -12.2500  -3.2500  24.7500 Du        
   6555 ****       -12.2500  -3.0000  10.7500 Du        
   6556 ****       -12.2500  -3.0000  11.0000 Du        
   6557 ****       -12.2500  -3.0000  11.2500 Du        
   6558 ****       -12.2500  -3.0000  11.5000 Du        
   6559 ****       -12.2500  -3.0000  11.7500 Du        
   6560 ****       -12.2500  -3.0000  24.0000 Du        
   6561 ****       -12.2500  -3.0000  24.2500 Du        
   6562 ****       -12.2500  -3.0000  24.5000 Du        
   6563 ****       -12.2500  -2.7500  11.2500 Du        
   6564 ****       -12.2500  -2.7500  11.5000 Du        
   6565 ****       -12.2500  -2.7500  24.0000 Du        
   6566 ****       -12.2500  -0.7500  22.0000 Du        
   6567 ****       -12.2500  -0.5000  22.0000 Du        
   6568 ****       -12.2500  -0.2500  22.0000 Du        
   6569 ****       -12.2500   0.0000  22.0000 Du        
   6570 ****       -12.2500   4.0000  26.7500 Du        
   6571 ****       -12.2500   4.0000  27.0000 Du        
   6572 ****       -12.2500   4.0000  27.2500 Du        
   6573 ****       -12.2500   4.0000  27.5000 Du        
   6574 ****       -12.2500   4.2500  26.7500 Du        
   6575 ****       -12.2500   4.2500  27.0000 Du        
   6576 ****       -12.2500   4.2500  27.2500 Du        
   6577 ****       -12.2500   4.2500  27.5000 Du        
   6578 ****       -12.2500   4.2500  27.7500 Du        
   6579 ****       -12.2500   4.5000  27.5000 Du        
   6580 ****       -12.2500   4.5000  27.7500 Du        
   6581 ****       -12.0000 -10.0000   4.5000 Du        
   6582 ****       -12.0000  -9.7500   4.5000 Du        
   6583 ****       -12.0000  -9.7500   4.7500 Du        
   6584 ****       -12.0000  -9.5000   4.0000 Du        
   6585 ****       -12.0000  -9.5000   4.2500 Du        
   6586 ****       -12.0000  -9.5000   4.5000 Du        
   6587 ****       -12.0000  -9.5000   4.7500 Du        
   6588 ****       -12.0000  -9.2500   4.0000 Du        
   6589 ****       -12.0000  -9.2500   4.2500 Du        
   6590 ****       -12.0000  -9.2500   4.5000 Du        
   6591 ****       -12.0000  -9.2500   4.7500 Du        
   6592 ****       -12.0000  -9.0000   3.7500 Du        
   6593 ****       -12.0000  -6.0000   9.2500 Du        
   6594 ****       -12.0000  -5.7500   9.2500 Du        
   6595 ****       -12.0000  -5.7500   9.5000 Du        
   6596 ****       -12.0000  -5.5000   9.5000 Du        
   6597 ****       -12.0000  -5.2500   9.2500 Du        
   6598 ****       -12.0000  -5.2500   9.5000 Du        
   6599 ****       -12.0000  -5.2500   9.7500 Du        
   6600 ****       -12.0000  -5.0000   9.2500 Du        
   6601 ****       -12.0000  -5.0000   9.5000 Du        
   6602 ****       -12.0000  -5.0000   9.7500 Du        
   6603 ****       -12.0000  -5.0000  10.0000 Du        
   6604 ****       -12.0000  -4.7500   9.2500 Du        
   6605 ****       -12.0000  -4.7500   9.5000 Du        
   6606 ****       -12.0000  -4.7500   9.7500 Du        
   6607 ****       -12.0000  -4.7500  10.0000 Du        
   6608 ****       -12.0000  -4.5000   9.5000 Du        
   6609 ****       -12.0000  -4.5000   9.7500 Du        
   6610 ****       -12.0000  -4.5000  10.0000 Du        
   6611 ****       -12.0000  -4.5000  10.2500 Du        
   6612 ****       -12.0000  -4.2500   9.5000 Du        
   6613 ****       -12.0000  -4.2500   9.7500 Du        
   6614 ****       -12.0000  -4.2500  10.0000 Du        
   6615 ****       -12.0000  -4.2500  10.2500 Du        
   6616 ****       -12.0000  -4.2500  10.5000 Du        
   6617 ****       -12.0000  -4.2500  10.7500 Du        
   6618 ****       -12.0000  -4.2500  17.5000 Du        
   6619 ****       -12.0000  -4.2500  17.7500 Du        
   6620 ****       -12.0000  -4.0000   9.5000 Du        
   6621 ****       -12.0000  -4.0000   9.7500 Du        
   6622 ****       -12.0000  -4.0000  10.0000 Du        
   6623 ****       -12.0000  -4.0000  10.2500 Du        
   6624 ****       -12.0000  -4.0000  10.5000 Du        
   6625 ****       -12.0000  -4.0000  10.7500 Du        
   6626 ****       -12.0000  -4.0000  11.0000 Du        
   6627 ****       -12.0000  -4.0000  11.2500 Du        
   6628 ****       -12.0000  -4.0000  11.5000 Du        
   6629 ****       -12.0000  -4.0000  11.7500 Du        
   6630 ****       -12.0000  -4.0000  12.0000 Du        
   6631 ****       -12.0000  -4.0000  17.2500 Du        
   6632 ****       -12.0000  -4.0000  17.5000 Du        
   6633 ****       -12.0000  -4.0000  17.7500 Du        
   6634 ****       -12.0000  -4.0000  18.0000 Du        
   6635 ****       -12.0000  -3.7500  10.0000 Du        
   6636 ****       -12.0000  -3.7500  10.2500 Du        
   6637 ****       -12.0000  -3.7500  10.5000 Du        
   6638 ****       -12.0000  -3.7500  10.7500 Du        
   6639 ****       -12.0000  -3.7500  11.0000 Du        
   6640 ****       -12.0000  -3.7500  11.2500 Du        
   6641 ****       -12.0000  -3.7500  11.5000 Du        
   6642 ****       -12.0000  -3.7500  11.7500 Du        
   6643 ****       -12.0000  -3.7500  12.0000 Du        
   6644 ****       -12.0000  -3.7500  12.2500 Du        
   6645 ****       -12.0000  -3.7500  12.5000 Du        
   6646 ****       -12.0000  -3.7500  17.2500 Du        
   6647 ****       -12.0000  -3.7500  17.5000 Du        
   6648 ****       -12.0000  -3.7500  17.7500 Du        
   6649 ****       -12.0000  -3.7500  18.0000 Du        
   6650 ****       -12.0000  -3.5000  10.5000 Du        
   6651 ****       -12.0000  -3.5000  10.7500 Du        
   6652 ****       -12.0000  -3.5000  11.0000 Du        
   6653 ****       -12.0000  -3.5000  11.2500 Du        
   6654 ****       -12.0000  -3.5000  11.5000 Du        
   6655 ****       -12.0000  -3.5000  11.7500 Du        
   6656 ****       -12.0000  -3.5000  12.0000 Du        
   6657 ****       -12.0000  -3.5000  17.5000 Du        
   6658 ****       -12.0000  -3.5000  17.7500 Du        
   6659 ****       -12.0000  -3.5000  24.5000 Du        
   6660 ****       -12.0000  -3.2500  10.5000 Du        
   6661 ****       -12.0000  -3.2500  10.7500 Du        
   6662 ****       -12.0000  -3.2500  11.0000 Du        
   6663 ****       -12.0000  -3.2500  11.2500 Du        
   6664 ****       -12.0000  -3.2500  11.5000 Du        
   6665 ****       -12.0000  -3.2500  11.7500 Du        
   6666 ****       -12.0000  -3.2500  12.0000 Du        
   6667 ****       -12.0000  -3.2500  24.0000 Du        
   6668 ****       -12.0000  -3.2500  24.2500 Du        
   6669 ****       -12.0000  -3.2500  24.5000 Du        
   6670 ****       -12.0000  -3.2500  24.7500 Du        
   6671 ****       -12.0000  -3.0000  11.0000 Du        
   6672 ****       -12.0000  -3.0000  11.2500 Du        
   6673 ****       -12.0000  -3.0000  11.5000 Du        
   6674 ****       -12.0000  -3.0000  11.7500 Du        
   6675 ****       -12.0000  -3.0000  12.0000 Du        
   6676 ****       -12.0000  -3.0000  23.7500 Du        
   6677 ****       -12.0000  -3.0000  24.0000 Du        
   6678 ****       -12.0000  -3.0000  24.2500 Du        
   6679 ****       -12.0000  -3.0000  24.5000 Du        
   6680 ****       -12.0000  -3.0000  24.7500 Du        
   6681 ****       -12.0000  -2.7500  23.5000 Du        
   6682 ****       -12.0000  -2.7500  23.7500 Du        
   6683 ****       -12.0000  -2.7500  24.0000 Du        
   6684 ****       -12.0000  -2.7500  24.2500 Du        
   6685 ****       -12.0000  -2.7500  24.5000 Du        
   6686 ****       -12.0000  -2.5000  23.5000 Du        
   6687 ****       -12.0000  -2.5000  23.7500 Du        
   6688 ****       -12.0000  -2.5000  24.0000 Du        
   6689 ****       -12.0000  -2.2500  23.0000 Du        
   6690 ****       -12.0000  -2.2500  23.2500 Du        
   6691 ****       -12.0000  -2.2500  23.5000 Du        
   6692 ****       -12.0000  -2.2500  23.7500 Du        
   6693 ****       -12.0000  -2.0000  22.7500 Du        
   6694 ****       -12.0000  -2.0000  23.0000 Du        
   6695 ****       -12.0000  -2.0000  23.2500 Du        
   6696 ****       -12.0000  -1.7500  22.2500 Du        
   6697 ****       -12.0000  -1.7500  22.5000 Du        
   6698 ****       -12.0000  -1.7500  22.7500 Du        
   6699 ****       -12.0000  -1.7500  23.0000 Du        
   6700 ****       -12.0000  -1.2500  22.2500 Du        
   6701 ****       -12.0000  -1.0000  22.0000 Du        
   6702 ****       -12.0000  -1.0000  22.2500 Du        
   6703 ****       -12.0000  -0.7500  22.0000 Du        
   6704 ****       -12.0000  -0.7500  22.2500 Du        
   6705 ****       -12.0000  -0.5000  22.0000 Du        
   6706 ****       -12.0000   3.7500  27.2500 Du        
   6707 ****       -12.0000   3.7500  27.5000 Du        
   6708 ****       -12.0000   3.7500  27.7500 Du        
   6709 ****       -12.0000   4.0000  26.7500 Du        
   6710 ****       -12.0000   4.0000  27.0000 Du        
   6711 ****       -12.0000   4.0000  27.2500 Du        
   6712 ****       -12.0000   4.0000  27.5000 Du        
   6713 ****       -12.0000   4.0000  27.7500 Du        
   6714 ****       -12.0000   4.0000  28.0000 Du        
   6715 ****       -12.0000   4.0000  28.2500 Du        
   6716 ****       -12.0000   4.0000  28.5000 Du        
   6717 ****       -12.0000   4.2500  26.7500 Du        
   6718 ****       -12.0000   4.2500  27.0000 Du        
   6719 ****       -12.0000   4.2500  27.2500 Du        
   6720 ****       -12.0000   4.2500  27.5000 Du        
   6721 ****       -12.0000   4.2500  27.7500 Du        
   6722 ****       -12.0000   4.2500  28.0000 Du        
   6723 ****       -12.0000   4.2500  28.2500 Du        
   6724 ****       -12.0000   4.2500  28.5000 Du        
   6725 ****       -12.0000   4.2500  28.7500 Du        
   6726 ****       -12.0000   4.2500  29.0000 Du        
   6727 ****       -12.0000   4.5000  27.0000 Du        
   6728 ****       -12.0000   4.5000  27.2500 Du        
   6729 ****       -12.0000   4.5000  27.5000 Du        
   6730 ****       -12.0000   4.5000  27.7500 Du        
   6731 ****       -12.0000   4.5000  28.0000 Du        
   6732 ****       -12.0000   4.5000  28.2500 Du        
   6733 ****       -12.0000   4.5000  28.5000 Du        
   6734 ****       -12.0000   4.5000  28.7500 Du        
   6735 ****       -12.0000   4.7500  27.5000 Du        
   6736 ****       -12.0000   4.7500  27.7500 Du        
   6737 ****       -12.0000   4.7500  28.0000 Du        
   6738 ****       -12.0000   4.7500  28.2500 Du        
   6739 ****       -12.0000   4.7500  28.5000 Du        
   6740 ****       -12.0000   4.7500  28.7500 Du        
   6741 ****       -12.0000   4.7500  29.5000 Du        
   6742 ****       -12.0000   4.7500  29.7500 Du        
   6743 ****       -12.0000   4.7500  30.0000 Du        
   6744 ****       -12.0000   5.0000  27.7500 Du        
   6745 ****       -12.0000   5.0000  28.0000 Du        
   6746 ****       -12.0000   5.0000  28.2500 Du        
   6747 ****       -12.0000   5.0000  29.5000 Du        
   6748 ****       -12.0000   5.0000  29.7500 Du        
   6749 ****       -12.0000   5.0000  30.0000 Du        
   6750 ****       -11.7500  -9.7500   4.5000 Du        
   6751 ****       -11.7500  -9.5000   4.5000 Du        
   6752 ****       -11.7500  -8.0000  17.0000 Du        
   6753 ****       -11.7500  -7.7500  16.7500 Du        
   6754 ****       -11.7500  -7.7500  17.0000 Du        
   6755 ****       -11.7500  -7.7500  17.2500 Du        
   6756 ****       -11.7500  -7.5000  17.0000 Du        
   6757 ****       -11.7500  -7.5000  17.2500 Du        
   6758 ****       -11.7500  -7.5000  17.5000 Du        
   6759 ****       -11.7500  -7.2500  17.0000 Du        
   6760 ****       -11.7500  -7.2500  17.2500 Du        
   6761 ****       -11.7500  -7.2500  17.5000 Du        
   6762 ****       -11.7500  -7.2500  17.7500 Du        
   6763 ****       -11.7500  -7.0000  17.0000 Du        
   6764 ****       -11.7500  -7.0000  17.2500 Du        
   6765 ****       -11.7500  -7.0000  17.5000 Du        
   6766 ****       -11.7500  -7.0000  17.7500 Du        
   6767 ****       -11.7500  -6.7500   9.2500 Du        
   6768 ****       -11.7500  -6.7500  17.0000 Du        
   6769 ****       -11.7500  -6.7500  17.2500 Du        
   6770 ****       -11.7500  -6.7500  17.5000 Du        
   6771 ****       -11.7500  -6.7500  17.7500 Du        
   6772 ****       -11.7500  -6.5000   9.2500 Du        
   6773 ****       -11.7500  -6.5000  17.0000 Du        
   6774 ****       -11.7500  -6.5000  17.2500 Du        
   6775 ****       -11.7500  -6.5000  17.5000 Du        
   6776 ****       -11.7500  -6.2500   9.2500 Du        
   6777 ****       -11.7500  -6.2500   9.5000 Du        
   6778 ****       -11.7500  -6.2500  17.0000 Du        
   6779 ****       -11.7500  -6.2500  17.2500 Du        
   6780 ****       -11.7500  -6.2500  17.5000 Du        
   6781 ****       -11.7500  -6.0000   9.2500 Du        
   6782 ****       -11.7500  -6.0000   9.5000 Du        
   6783 ****       -11.7500  -6.0000  16.7500 Du        
   6784 ****       -11.7500  -6.0000  17.0000 Du        
   6785 ****       -11.7500  -6.0000  17.2500 Du        
   6786 ****       -11.7500  -5.7500   9.2500 Du        
   6787 ****       -11.7500  -5.7500   9.5000 Du        
   6788 ****       -11.7500  -5.7500  16.7500 Du        
   6789 ****       -11.7500  -5.7500  17.0000 Du        
   6790 ****       -11.7500  -5.7500  17.2500 Du        
   6791 ****       -11.7500  -5.5000   9.5000 Du        
   6792 ****       -11.7500  -5.5000  16.7500 Du        
   6793 ****       -11.7500  -5.5000  17.0000 Du        
   6794 ****       -11.7500  -5.5000  17.2500 Du        
   6795 ****       -11.7500  -5.2500   9.5000 Du        
   6796 ****       -11.7500  -5.2500   9.7500 Du        
   6797 ****       -11.7500  -5.2500  16.7500 Du        
   6798 ****       -11.7500  -5.2500  17.0000 Du        
   6799 ****       -11.7500  -5.2500  17.2500 Du        
   6800 ****       -11.7500  -5.0000   9.5000 Du        
   6801 ****       -11.7500  -5.0000   9.7500 Du        
   6802 ****       -11.7500  -5.0000  10.0000 Du        
   6803 ****       -11.7500  -5.0000  17.0000 Du        
   6804 ****       -11.7500  -5.0000  17.2500 Du        
   6805 ****       -11.7500  -5.0000  17.5000 Du        
   6806 ****       -11.7500  -4.7500   9.5000 Du        
   6807 ****       -11.7500  -4.7500   9.7500 Du        
   6808 ****       -11.7500  -4.7500  10.0000 Du        
   6809 ****       -11.7500  -4.7500  10.2500 Du        
   6810 ****       -11.7500  -4.7500  17.0000 Du        
   6811 ****       -11.7500  -4.7500  17.2500 Du        
   6812 ****       -11.7500  -4.7500  17.5000 Du        
   6813 ****       -11.7500  -4.7500  17.7500 Du        
   6814 ****       -11.7500  -4.5000   9.5000 Du        
   6815 ****       -11.7500  -4.5000   9.7500 Du        
   6816 ****       -11.7500  -4.5000  10.0000 Du        
   6817 ****       -11.7500  -4.5000  10.2500 Du        
   6818 ****       -11.7500  -4.5000  17.0000 Du        
   6819 ****       -11.7500  -4.5000  17.2500 Du        
   6820 ****       -11.7500  -4.5000  17.5000 Du        
   6821 ****       -11.7500  -4.5000  17.7500 Du        
   6822 ****       -11.7500  -4.5000  18.0000 Du        
   6823 ****       -11.7500  -4.2500   9.5000 Du        
   6824 ****       -11.7500  -4.2500   9.7500 Du        
   6825 ****       -11.7500  -4.2500  10.0000 Du        
   6826 ****       -11.7500  -4.2500  10.2500 Du        
   6827 ****       -11.7500  -4.2500  10.5000 Du        
   6828 ****       -11.7500  -4.2500  10.7500 Du        
   6829 ****       -11.7500  -4.2500  11.0000 Du        
   6830 ****       -11.7500  -4.2500  17.0000 Du        
   6831 ****       -11.7500  -4.2500  17.2500 Du        
   6832 ****       -11.7500  -4.2500  17.5000 Du        
   6833 ****       -11.7500  -4.2500  17.7500 Du        
   6834 ****       -11.7500  -4.2500  18.0000 Du        
   6835 ****       -11.7500  -4.2500  18.2500 Du        
   6836 ****       -11.7500  -4.2500  18.5000 Du        
   6837 ****       -11.7500  -4.0000   9.5000 Du        
   6838 ****       -11.7500  -4.0000   9.7500 Du        
   6839 ****       -11.7500  -4.0000  10.0000 Du        
   6840 ****       -11.7500  -4.0000  10.2500 Du        
   6841 ****       -11.7500  -4.0000  10.5000 Du        
   6842 ****       -11.7500  -4.0000  10.7500 Du        
   6843 ****       -11.7500  -4.0000  11.0000 Du        
   6844 ****       -11.7500  -4.0000  11.2500 Du        
   6845 ****       -11.7500  -4.0000  11.5000 Du        
   6846 ****       -11.7500  -4.0000  11.7500 Du        
   6847 ****       -11.7500  -4.0000  12.0000 Du        
   6848 ****       -11.7500  -4.0000  12.2500 Du        
   6849 ****       -11.7500  -4.0000  12.5000 Du        
   6850 ****       -11.7500  -4.0000  17.0000 Du        
   6851 ****       -11.7500  -4.0000  17.2500 Du        
   6852 ****       -11.7500  -4.0000  17.5000 Du        
   6853 ****       -11.7500  -4.0000  17.7500 Du        
   6854 ****       -11.7500  -4.0000  18.0000 Du        
   6855 ****       -11.7500  -4.0000  18.2500 Du        
   6856 ****       -11.7500  -4.0000  18.5000 Du        
   6857 ****       -11.7500  -4.0000  18.7500 Du        
   6858 ****       -11.7500  -3.7500   9.7500 Du        
   6859 ****       -11.7500  -3.7500  10.0000 Du        
   6860 ****       -11.7500  -3.7500  10.2500 Du        
   6861 ****       -11.7500  -3.7500  10.5000 Du        
   6862 ****       -11.7500  -3.7500  10.7500 Du        
   6863 ****       -11.7500  -3.7500  11.0000 Du        
   6864 ****       -11.7500  -3.7500  11.2500 Du        
   6865 ****       -11.7500  -3.7500  11.5000 Du        
   6866 ****       -11.7500  -3.7500  11.7500 Du        
   6867 ****       -11.7500  -3.7500  12.0000 Du        
   6868 ****       -11.7500  -3.7500  12.2500 Du        
   6869 ****       -11.7500  -3.7500  12.5000 Du        
   6870 ****       -11.7500  -3.7500  12.7500 Du        
   6871 ****       -11.7500  -3.7500  17.0000 Du        
   6872 ****       -11.7500  -3.7500  17.2500 Du        
   6873 ****       -11.7500  -3.7500  17.5000 Du        
   6874 ****       -11.7500  -3.7500  17.7500 Du        
   6875 ****       -11.7500  -3.7500  18.0000 Du        
   6876 ****       -11.7500  -3.7500  18.2500 Du        
   6877 ****       -11.7500  -3.7500  18.5000 Du        
   6878 ****       -11.7500  -3.7500  18.7500 Du        
   6879 ****       -11.7500  -3.5000  10.2500 Du        
   6880 ****       -11.7500  -3.5000  10.7500 Du        
   6881 ****       -11.7500  -3.5000  11.0000 Du        
   6882 ****       -11.7500  -3.5000  11.2500 Du        
   6883 ****       -11.7500  -3.5000  11.5000 Du        
   6884 ****       -11.7500  -3.5000  11.7500 Du        
   6885 ****       -11.7500  -3.5000  12.0000 Du        
   6886 ****       -11.7500  -3.5000  12.5000 Du        
   6887 ****       -11.7500  -3.5000  17.5000 Du        
   6888 ****       -11.7500  -3.5000  17.7500 Du        
   6889 ****       -11.7500  -3.5000  18.0000 Du        
   6890 ****       -11.7500  -3.5000  18.2500 Du        
   6891 ****       -11.7500  -3.2500  10.7500 Du        
   6892 ****       -11.7500  -3.2500  11.0000 Du        
   6893 ****       -11.7500  -3.2500  11.2500 Du        
   6894 ****       -11.7500  -3.2500  11.5000 Du        
   6895 ****       -11.7500  -3.2500  11.7500 Du        
   6896 ****       -11.7500  -3.2500  12.0000 Du        
   6897 ****       -11.7500  -3.2500  17.5000 Du        
   6898 ****       -11.7500  -3.2500  17.7500 Du        
   6899 ****       -11.7500  -3.2500  24.0000 Du        
   6900 ****       -11.7500  -3.2500  24.2500 Du        
   6901 ****       -11.7500  -3.2500  24.5000 Du        
   6902 ****       -11.7500  -3.0000  23.7500 Du        
   6903 ****       -11.7500  -3.0000  24.0000 Du        
   6904 ****       -11.7500  -3.0000  24.2500 Du        
   6905 ****       -11.7500  -3.0000  24.5000 Du        
   6906 ****       -11.7500  -3.0000  24.7500 Du        
   6907 ****       -11.7500  -2.7500  23.2500 Du        
   6908 ****       -11.7500  -2.7500  23.5000 Du        
   6909 ****       -11.7500  -2.7500  23.7500 Du        
   6910 ****       -11.7500  -2.7500  24.0000 Du        
   6911 ****       -11.7500  -2.7500  24.2500 Du        
   6912 ****       -11.7500  -2.7500  24.5000 Du        
   6913 ****       -11.7500  -2.7500  24.7500 Du        
   6914 ****       -11.7500  -2.5000  23.0000 Du        
   6915 ****       -11.7500  -2.5000  23.2500 Du        
   6916 ****       -11.7500  -2.5000  23.5000 Du        
   6917 ****       -11.7500  -2.5000  23.7500 Du        
   6918 ****       -11.7500  -2.5000  24.0000 Du        
   6919 ****       -11.7500  -2.5000  24.2500 Du        
   6920 ****       -11.7500  -2.2500  22.7500 Du        
   6921 ****       -11.7500  -2.2500  23.0000 Du        
   6922 ****       -11.7500  -2.2500  23.2500 Du        
   6923 ****       -11.7500  -2.2500  23.5000 Du        
   6924 ****       -11.7500  -2.2500  23.7500 Du        
   6925 ****       -11.7500  -2.2500  24.0000 Du        
   6926 ****       -11.7500  -2.0000  22.0000 Du        
   6927 ****       -11.7500  -2.0000  22.2500 Du        
   6928 ****       -11.7500  -2.0000  22.5000 Du        
   6929 ****       -11.7500  -2.0000  22.7500 Du        
   6930 ****       -11.7500  -2.0000  23.0000 Du        
   6931 ****       -11.7500  -2.0000  23.2500 Du        
   6932 ****       -11.7500  -2.0000  23.5000 Du        
   6933 ****       -11.7500  -1.7500  22.0000 Du        
   6934 ****       -11.7500  -1.7500  22.2500 Du        
   6935 ****       -11.7500  -1.7500  22.5000 Du        
   6936 ****       -11.7500  -1.7500  22.7500 Du        
   6937 ****       -11.7500  -1.7500  23.0000 Du        
   6938 ****       -11.7500  -1.7500  23.2500 Du        
   6939 ****       -11.7500  -1.5000  22.2500 Du        
   6940 ****       -11.7500  -1.5000  22.5000 Du        
   6941 ****       -11.7500  -1.5000  22.7500 Du        
   6942 ****       -11.7500  -1.5000  23.0000 Du        
   6943 ****       -11.7500  -1.2500  22.0000 Du        
   6944 ****       -11.7500  -1.2500  22.2500 Du        
   6945 ****       -11.7500  -1.2500  22.5000 Du        
   6946 ****       -11.7500  -1.2500  22.7500 Du        
   6947 ****       -11.7500  -1.0000  22.2500 Du        
   6948 ****       -11.7500   3.7500  27.0000 Du        
   6949 ****       -11.7500   3.7500  27.2500 Du        
   6950 ****       -11.7500   3.7500  27.5000 Du        
   6951 ****       -11.7500   3.7500  27.7500 Du        
   6952 ****       -11.7500   3.7500  28.0000 Du        
   6953 ****       -11.7500   3.7500  28.2500 Du        
   6954 ****       -11.7500   4.0000  26.7500 Du        
   6955 ****       -11.7500   4.0000  27.0000 Du        
   6956 ****       -11.7500   4.0000  27.2500 Du        
   6957 ****       -11.7500   4.0000  27.5000 Du        
   6958 ****       -11.7500   4.0000  27.7500 Du        
   6959 ****       -11.7500   4.0000  28.0000 Du        
   6960 ****       -11.7500   4.0000  28.2500 Du        
   6961 ****       -11.7500   4.0000  28.5000 Du        
   6962 ****       -11.7500   4.2500  26.7500 Du        
   6963 ****       -11.7500   4.2500  27.0000 Du        
   6964 ****       -11.7500   4.2500  27.2500 Du        
   6965 ****       -11.7500   4.2500  27.5000 Du        
   6966 ****       -11.7500   4.2500  27.7500 Du        
   6967 ****       -11.7500   4.2500  28.0000 Du        
   6968 ****       -11.7500   4.2500  28.2500 Du        
   6969 ****       -11.7500   4.2500  28.5000 Du        
   6970 ****       -11.7500   4.2500  28.7500 Du        
   6971 ****       -11.7500   4.5000  27.2500 Du        
   6972 ****       -11.7500   4.5000  27.5000 Du        
   6973 ****       -11.7500   4.5000  27.7500 Du        
   6974 ****       -11.7500   4.5000  28.0000 Du        
   6975 ****       -11.7500   4.5000  28.2500 Du        
   6976 ****       -11.7500   4.5000  28.5000 Du        
   6977 ****       -11.7500   4.5000  28.7500 Du        
   6978 ****       -11.7500   4.7500  27.5000 Du        
   6979 ****       -11.7500   4.7500  27.7500 Du        
   6980 ****       -11.7500   4.7500  28.0000 Du        
   6981 ****       -11.7500   4.7500  28.2500 Du        
   6982 ****       -11.7500   4.7500  28.5000 Du        
   6983 ****       -11.7500   4.7500  28.7500 Du        
   6984 ****       -11.7500   4.7500  29.0000 Du        
   6985 ****       -11.7500   5.0000  27.7500 Du        
   6986 ****       -11.7500   5.0000  28.0000 Du        
   6987 ****       -11.7500   5.0000  28.2500 Du        
   6988 ****       -11.7500   5.0000  28.5000 Du        
   6989 ****       -11.7500   5.0000  28.7500 Du        
   6990 ****       -11.7500   5.0000  29.0000 Du        
   6991 ****       -11.7500   5.0000  29.2500 Du        
   6992 ****       -11.7500   5.0000  29.5000 Du        
   6993 ****       -11.7500   5.0000  29.7500 Du        
   6994 ****       -11.7500   5.0000  30.0000 Du        
   6995 ****       -11.7500   5.0000  30.2500 Du        
   6996 ****       -11.7500   5.2500  29.7500 Du        
   6997 ****       -11.7500   5.2500  30.0000 Du        
   6998 ****       -11.7500   5.2500  30.2500 Du        
   6999 ****       -11.5000  -8.7500   9.2500 Du        
   7000 ****       -11.5000  -8.7500   9.5000 Du        
   7001 ****       -11.5000  -8.5000   9.2500 Du        
   7002 ****       -11.5000  -8.5000   9.5000 Du        
   7003 ****       -11.5000  -8.5000  16.2500 Du        
   7004 ****       -11.5000  -8.5000  16.5000 Du        
   7005 ****       -11.5000  -8.5000  16.7500 Du        
   7006 ****       -11.5000  -8.2500   9.2500 Du        
   7007 ****       -11.5000  -8.2500   9.5000 Du        
   7008 ****       -11.5000  -8.2500  16.2500 Du        
   7009 ****       -11.5000  -8.2500  16.5000 Du        
   7010 ****       -11.5000  -8.2500  16.7500 Du        
   7011 ****       -11.5000  -8.2500  17.0000 Du        
   7012 ****       -11.5000  -8.0000   9.2500 Du        
   7013 ****       -11.5000  -8.0000   9.5000 Du        
   7014 ****       -11.5000  -8.0000  16.2500 Du        
   7015 ****       -11.5000  -8.0000  16.5000 Du        
   7016 ****       -11.5000  -8.0000  16.7500 Du        
   7017 ****       -11.5000  -8.0000  17.0000 Du        
   7018 ****       -11.5000  -8.0000  17.2500 Du        
   7019 ****       -11.5000  -7.7500   9.2500 Du        
   7020 ****       -11.5000  -7.7500   9.5000 Du        
   7021 ****       -11.5000  -7.7500  16.5000 Du        
   7022 ****       -11.5000  -7.7500  16.7500 Du        
   7023 ****       -11.5000  -7.7500  17.0000 Du        
   7024 ****       -11.5000  -7.7500  17.2500 Du        
   7025 ****       -11.5000  -7.7500  17.5000 Du        
   7026 ****       -11.5000  -7.5000   9.2500 Du        
   7027 ****       -11.5000  -7.5000   9.5000 Du        
   7028 ****       -11.5000  -7.5000  16.5000 Du        
   7029 ****       -11.5000  -7.5000  16.7500 Du        
   7030 ****       -11.5000  -7.5000  17.0000 Du        
   7031 ****       -11.5000  -7.5000  17.2500 Du        
   7032 ****       -11.5000  -7.5000  17.5000 Du        
   7033 ****       -11.5000  -7.5000  17.7500 Du        
   7034 ****       -11.5000  -7.2500   9.0000 Du        
   7035 ****       -11.5000  -7.2500   9.2500 Du        
   7036 ****       -11.5000  -7.2500   9.5000 Du        
   7037 ****       -11.5000  -7.2500  16.5000 Du        
   7038 ****       -11.5000  -7.2500  16.7500 Du        
   7039 ****       -11.5000  -7.2500  17.0000 Du        
   7040 ****       -11.5000  -7.2500  17.2500 Du        
   7041 ****       -11.5000  -7.2500  17.5000 Du        
   7042 ****       -11.5000  -7.2500  17.7500 Du        
   7043 ****       -11.5000  -7.2500  18.0000 Du        
   7044 ****       -11.5000  -7.0000   9.0000 Du        
   7045 ****       -11.5000  -7.0000   9.2500 Du        
   7046 ****       -11.5000  -7.0000   9.5000 Du        
   7047 ****       -11.5000  -7.0000  16.5000 Du        
   7048 ****       -11.5000  -7.0000  16.7500 Du        
   7049 ****       -11.5000  -7.0000  17.0000 Du        
   7050 ****       -11.5000  -7.0000  17.2500 Du        
   7051 ****       -11.5000  -7.0000  17.5000 Du        
   7052 ****       -11.5000  -7.0000  17.7500 Du        
   7053 ****       -11.5000  -7.0000  18.0000 Du        
   7054 ****       -11.5000  -7.0000  18.2500 Du        
   7055 ****       -11.5000  -6.7500   9.0000 Du        
   7056 ****       -11.5000  -6.7500   9.2500 Du        
   7057 ****       -11.5000  -6.7500   9.5000 Du        
   7058 ****       -11.5000  -6.7500  16.5000 Du        
   7059 ****       -11.5000  -6.7500  16.7500 Du        
   7060 ****       -11.5000  -6.7500  17.0000 Du        
   7061 ****       -11.5000  -6.7500  17.2500 Du        
   7062 ****       -11.5000  -6.7500  17.5000 Du        
   7063 ****       -11.5000  -6.7500  17.7500 Du        
   7064 ****       -11.5000  -6.7500  18.0000 Du        
   7065 ****       -11.5000  -6.7500  18.2500 Du        
   7066 ****       -11.5000  -6.5000   9.2500 Du        
   7067 ****       -11.5000  -6.5000   9.5000 Du        
   7068 ****       -11.5000  -6.5000  16.5000 Du        
   7069 ****       -11.5000  -6.5000  16.7500 Du        
   7070 ****       -11.5000  -6.5000  17.0000 Du        
   7071 ****       -11.5000  -6.5000  17.2500 Du        
   7072 ****       -11.5000  -6.5000  17.5000 Du        
   7073 ****       -11.5000  -6.5000  17.7500 Du        
   7074 ****       -11.5000  -6.5000  18.0000 Du        
   7075 ****       -11.5000  -6.2500   9.2500 Du        
   7076 ****       -11.5000  -6.2500   9.5000 Du        
   7077 ****       -11.5000  -6.2500  16.5000 Du        
   7078 ****       -11.5000  -6.2500  16.7500 Du        
   7079 ****       -11.5000  -6.2500  17.0000 Du        
   7080 ****       -11.5000  -6.2500  17.2500 Du        
   7081 ****       -11.5000  -6.2500  17.5000 Du        
   7082 ****       -11.5000  -6.2500  17.7500 Du        
   7083 ****       -11.5000  -6.0000   9.2500 Du        
   7084 ****       -11.5000  -6.0000   9.5000 Du        
   7085 ****       -11.5000  -6.0000  16.2500 Du        
   7086 ****       -11.5000  -6.0000  16.5000 Du        
   7087 ****       -11.5000  -6.0000  16.7500 Du        
   7088 ****       -11.5000  -6.0000  17.0000 Du        
   7089 ****       -11.5000  -6.0000  17.2500 Du        
   7090 ****       -11.5000  -6.0000  17.5000 Du        
   7091 ****       -11.5000  -6.0000  17.7500 Du        
   7092 ****       -11.5000  -5.7500   9.2500 Du        
   7093 ****       -11.5000  -5.7500   9.5000 Du        
   7094 ****       -11.5000  -5.7500  16.5000 Du        
   7095 ****       -11.5000  -5.7500  16.7500 Du        
   7096 ****       -11.5000  -5.7500  17.0000 Du        
   7097 ****       -11.5000  -5.7500  17.2500 Du        
   7098 ****       -11.5000  -5.7500  17.5000 Du        
   7099 ****       -11.5000  -5.5000  16.5000 Du        
   7100 ****       -11.5000  -5.5000  16.7500 Du        
   7101 ****       -11.5000  -5.5000  17.0000 Du        
   7102 ****       -11.5000  -5.5000  17.2500 Du        
   7103 ****       -11.5000  -5.5000  17.5000 Du        
   7104 ****       -11.5000  -5.2500   9.7500 Du        
   7105 ****       -11.5000  -5.2500  16.7500 Du        
   7106 ****       -11.5000  -5.2500  17.0000 Du        
   7107 ****       -11.5000  -5.2500  17.2500 Du        
   7108 ****       -11.5000  -5.2500  17.5000 Du        
   7109 ****       -11.5000  -5.2500  17.7500 Du        
   7110 ****       -11.5000  -5.0000   9.7500 Du        
   7111 ****       -11.5000  -5.0000  16.7500 Du        
   7112 ****       -11.5000  -5.0000  17.0000 Du        
   7113 ****       -11.5000  -5.0000  17.2500 Du        
   7114 ****       -11.5000  -5.0000  17.5000 Du        
   7115 ****       -11.5000  -5.0000  17.7500 Du        
   7116 ****       -11.5000  -5.0000  18.0000 Du        
   7117 ****       -11.5000  -4.7500   9.7500 Du        
   7118 ****       -11.5000  -4.7500  17.0000 Du        
   7119 ****       -11.5000  -4.7500  17.2500 Du        
   7120 ****       -11.5000  -4.7500  17.5000 Du        
   7121 ****       -11.5000  -4.7500  17.7500 Du        
   7122 ****       -11.5000  -4.7500  18.0000 Du        
   7123 ****       -11.5000  -4.7500  18.2500 Du        
   7124 ****       -11.5000  -4.5000  17.0000 Du        
   7125 ****       -11.5000  -4.5000  17.2500 Du        
   7126 ****       -11.5000  -4.5000  17.5000 Du        
   7127 ****       -11.5000  -4.5000  17.7500 Du        
   7128 ****       -11.5000  -4.5000  18.0000 Du        
   7129 ****       -11.5000  -4.5000  18.2500 Du        
   7130 ****       -11.5000  -4.2500  17.0000 Du        
   7131 ****       -11.5000  -4.2500  17.2500 Du        
   7132 ****       -11.5000  -4.2500  17.5000 Du        
   7133 ****       -11.5000  -4.2500  17.7500 Du        
   7134 ****       -11.5000  -4.2500  18.0000 Du        
   7135 ****       -11.5000  -4.2500  18.2500 Du        
   7136 ****       -11.5000  -4.0000  17.0000 Du        
   7137 ****       -11.5000  -4.0000  17.2500 Du        
   7138 ****       -11.5000  -4.0000  17.5000 Du        
   7139 ****       -11.5000  -4.0000  17.7500 Du        
   7140 ****       -11.5000  -4.0000  18.0000 Du        
   7141 ****       -11.5000  -4.0000  18.2500 Du        
   7142 ****       -11.5000  -3.7500  12.0000 Du        
   7143 ****       -11.5000  -3.7500  17.0000 Du        
   7144 ****       -11.5000  -3.7500  17.2500 Du        
   7145 ****       -11.5000  -3.7500  17.5000 Du        
   7146 ****       -11.5000  -3.7500  17.7500 Du        
   7147 ****       -11.5000  -3.7500  18.0000 Du        
   7148 ****       -11.5000  -3.7500  18.2500 Du        
   7149 ****       -11.5000  -3.2500  24.2500 Du        
   7150 ****       -11.5000  -3.0000  23.7500 Du        
   7151 ****       -11.5000  -3.0000  24.0000 Du        
   7152 ****       -11.5000  -3.0000  24.2500 Du        
   7153 ****       -11.5000  -3.0000  24.5000 Du        
   7154 ****       -11.5000  -3.0000  24.7500 Du        
   7155 ****       -11.5000  -2.7500  23.2500 Du        
   7156 ****       -11.5000  -2.7500  23.5000 Du        
   7157 ****       -11.5000  -2.7500  23.7500 Du        
   7158 ****       -11.5000  -2.7500  24.0000 Du        
   7159 ****       -11.5000  -2.7500  24.2500 Du        
   7160 ****       -11.5000  -2.7500  24.5000 Du        
   7161 ****       -11.5000  -2.7500  24.7500 Du        
   7162 ****       -11.5000  -2.5000  23.2500 Du        
   7163 ****       -11.5000  -2.5000  23.5000 Du        
   7164 ****       -11.5000  -2.5000  23.7500 Du        
   7165 ****       -11.5000  -2.5000  24.0000 Du        
   7166 ****       -11.5000  -2.5000  24.2500 Du        
   7167 ****       -11.5000  -2.5000  24.5000 Du        
   7168 ****       -11.5000  -2.2500  22.7500 Du        
   7169 ****       -11.5000  -2.2500  23.0000 Du        
   7170 ****       -11.5000  -2.2500  23.2500 Du        
   7171 ****       -11.5000  -2.2500  23.5000 Du        
   7172 ****       -11.5000  -2.2500  23.7500 Du        
   7173 ****       -11.5000  -2.2500  24.0000 Du        
   7174 ****       -11.5000  -2.0000  22.0000 Du        
   7175 ****       -11.5000  -2.0000  22.2500 Du        
   7176 ****       -11.5000  -2.0000  22.5000 Du        
   7177 ****       -11.5000  -2.0000  22.7500 Du        
   7178 ****       -11.5000  -2.0000  23.0000 Du        
   7179 ****       -11.5000  -2.0000  23.2500 Du        
   7180 ****       -11.5000  -2.0000  23.5000 Du        
   7181 ****       -11.5000  -2.0000  23.7500 Du        
   7182 ****       -11.5000  -1.7500  22.0000 Du        
   7183 ****       -11.5000  -1.7500  22.2500 Du        
   7184 ****       -11.5000  -1.7500  22.5000 Du        
   7185 ****       -11.5000  -1.7500  22.7500 Du        
   7186 ****       -11.5000  -1.7500  23.0000 Du        
   7187 ****       -11.5000  -1.7500  23.2500 Du        
   7188 ****       -11.5000   3.7500  27.2500 Du        
   7189 ****       -11.5000   3.7500  27.5000 Du        
   7190 ****       -11.5000   3.7500  27.7500 Du        
   7191 ****       -11.5000   3.7500  28.0000 Du        
   7192 ****       -11.5000   4.0000  26.7500 Du        
   7193 ****       -11.5000   4.0000  27.0000 Du        
   7194 ****       -11.5000   4.0000  27.2500 Du        
   7195 ****       -11.5000   4.0000  27.5000 Du        
   7196 ****       -11.5000   4.0000  27.7500 Du        
   7197 ****       -11.5000   4.0000  28.0000 Du        
   7198 ****       -11.5000   4.2500  27.0000 Du        
   7199 ****       -11.5000   4.2500  27.2500 Du        
   7200 ****       -11.5000   4.2500  27.5000 Du        
   7201 ****       -11.5000   4.2500  27.7500 Du        
   7202 ****       -11.5000   4.2500  28.0000 Du        
   7203 ****       -11.2500  -8.7500   9.5000 Du        
   7204 ****       -11.2500  -8.7500   9.7500 Du        
   7205 ****       -11.2500  -8.7500  16.0000 Du        
   7206 ****       -11.2500  -8.7500  16.2500 Du        
   7207 ****       -11.2500  -8.7500  16.5000 Du        
   7208 ****       -11.2500  -8.5000   9.2500 Du        
   7209 ****       -11.2500  -8.5000   9.5000 Du        
   7210 ****       -11.2500  -8.5000   9.7500 Du        
   7211 ****       -11.2500  -8.5000  16.0000 Du        
   7212 ****       -11.2500  -8.5000  16.2500 Du        
   7213 ****       -11.2500  -8.5000  16.5000 Du        
   7214 ****       -11.2500  -8.5000  16.7500 Du        
   7215 ****       -11.2500  -8.2500   9.2500 Du        
   7216 ****       -11.2500  -8.2500   9.5000 Du        
   7217 ****       -11.2500  -8.2500   9.7500 Du        
   7218 ****       -11.2500  -8.2500  16.0000 Du        
   7219 ****       -11.2500  -8.2500  16.2500 Du        
   7220 ****       -11.2500  -8.2500  16.5000 Du        
   7221 ****       -11.2500  -8.2500  16.7500 Du        
   7222 ****       -11.2500  -8.2500  17.0000 Du        
   7223 ****       -11.2500  -8.2500  17.2500 Du        
   7224 ****       -11.2500  -8.0000   9.2500 Du        
   7225 ****       -11.2500  -8.0000   9.5000 Du        
   7226 ****       -11.2500  -8.0000   9.7500 Du        
   7227 ****       -11.2500  -8.0000  16.0000 Du        
   7228 ****       -11.2500  -8.0000  16.2500 Du        
   7229 ****       -11.2500  -8.0000  16.5000 Du        
   7230 ****       -11.2500  -8.0000  16.7500 Du        
   7231 ****       -11.2500  -8.0000  17.0000 Du        
   7232 ****       -11.2500  -8.0000  17.2500 Du        
   7233 ****       -11.2500  -8.0000  17.5000 Du        
   7234 ****       -11.2500  -7.7500   9.0000 Du        
   7235 ****       -11.2500  -7.7500   9.2500 Du        
   7236 ****       -11.2500  -7.7500   9.5000 Du        
   7237 ****       -11.2500  -7.7500   9.7500 Du        
   7238 ****       -11.2500  -7.7500  16.0000 Du        
   7239 ****       -11.2500  -7.7500  16.2500 Du        
   7240 ****       -11.2500  -7.7500  16.5000 Du        
   7241 ****       -11.2500  -7.7500  16.7500 Du        
   7242 ****       -11.2500  -7.7500  17.0000 Du        
   7243 ****       -11.2500  -7.7500  17.2500 Du        
   7244 ****       -11.2500  -7.7500  17.5000 Du        
   7245 ****       -11.2500  -7.7500  17.7500 Du        
   7246 ****       -11.2500  -7.5000   9.0000 Du        
   7247 ****       -11.2500  -7.5000   9.2500 Du        
   7248 ****       -11.2500  -7.5000   9.5000 Du        
   7249 ****       -11.2500  -7.5000   9.7500 Du        
   7250 ****       -11.2500  -7.5000  16.2500 Du        
   7251 ****       -11.2500  -7.5000  16.5000 Du        
   7252 ****       -11.2500  -7.5000  16.7500 Du        
   7253 ****       -11.2500  -7.5000  17.0000 Du        
   7254 ****       -11.2500  -7.5000  17.2500 Du        
   7255 ****       -11.2500  -7.5000  17.5000 Du        
   7256 ****       -11.2500  -7.5000  17.7500 Du        
   7257 ****       -11.2500  -7.5000  18.0000 Du        
   7258 ****       -11.2500  -7.2500   9.0000 Du        
   7259 ****       -11.2500  -7.2500   9.2500 Du        
   7260 ****       -11.2500  -7.2500   9.5000 Du        
   7261 ****       -11.2500  -7.2500   9.7500 Du        
   7262 ****       -11.2500  -7.2500  16.2500 Du        
   7263 ****       -11.2500  -7.2500  16.5000 Du        
   7264 ****       -11.2500  -7.2500  16.7500 Du        
   7265 ****       -11.2500  -7.2500  17.0000 Du        
   7266 ****       -11.2500  -7.2500  17.2500 Du        
   7267 ****       -11.2500  -7.2500  17.5000 Du        
   7268 ****       -11.2500  -7.2500  17.7500 Du        
   7269 ****       -11.2500  -7.2500  18.0000 Du        
   7270 ****       -11.2500  -7.2500  18.2500 Du        
   7271 ****       -11.2500  -7.0000   9.0000 Du        
   7272 ****       -11.2500  -7.0000   9.2500 Du        
   7273 ****       -11.2500  -7.0000   9.5000 Du        
   7274 ****       -11.2500  -7.0000   9.7500 Du        
   7275 ****       -11.2500  -7.0000  16.0000 Du        
   7276 ****       -11.2500  -7.0000  16.2500 Du        
   7277 ****       -11.2500  -7.0000  16.5000 Du        
   7278 ****       -11.2500  -7.0000  16.7500 Du        
   7279 ****       -11.2500  -7.0000  17.0000 Du        
   7280 ****       -11.2500  -7.0000  17.2500 Du        
   7281 ****       -11.2500  -7.0000  17.5000 Du        
   7282 ****       -11.2500  -7.0000  17.7500 Du        
   7283 ****       -11.2500  -7.0000  18.0000 Du        
   7284 ****       -11.2500  -7.0000  18.2500 Du        
   7285 ****       -11.2500  -6.7500   9.0000 Du        
   7286 ****       -11.2500  -6.7500   9.2500 Du        
   7287 ****       -11.2500  -6.7500   9.5000 Du        
   7288 ****       -11.2500  -6.7500   9.7500 Du        
   7289 ****       -11.2500  -6.7500  16.0000 Du        
   7290 ****       -11.2500  -6.7500  16.2500 Du        
   7291 ****       -11.2500  -6.7500  16.5000 Du        
   7292 ****       -11.2500  -6.7500  16.7500 Du        
   7293 ****       -11.2500  -6.7500  17.0000 Du        
   7294 ****       -11.2500  -6.7500  17.2500 Du        
   7295 ****       -11.2500  -6.7500  17.5000 Du        
   7296 ****       -11.2500  -6.7500  17.7500 Du        
   7297 ****       -11.2500  -6.7500  18.0000 Du        
   7298 ****       -11.2500  -6.7500  18.2500 Du        
   7299 ****       -11.2500  -6.5000   9.2500 Du        
   7300 ****       -11.2500  -6.5000   9.5000 Du        
   7301 ****       -11.2500  -6.5000   9.7500 Du        
   7302 ****       -11.2500  -6.5000  16.2500 Du        
   7303 ****       -11.2500  -6.5000  16.5000 Du        
   7304 ****       -11.2500  -6.5000  16.7500 Du        
   7305 ****       -11.2500  -6.5000  17.0000 Du        
   7306 ****       -11.2500  -6.5000  17.2500 Du        
   7307 ****       -11.2500  -6.5000  17.5000 Du        
   7308 ****       -11.2500  -6.5000  17.7500 Du        
   7309 ****       -11.2500  -6.5000  18.0000 Du        
   7310 ****       -11.2500  -6.5000  18.2500 Du        
   7311 ****       -11.2500  -6.2500   9.2500 Du        
   7312 ****       -11.2500  -6.2500   9.5000 Du        
   7313 ****       -11.2500  -6.2500   9.7500 Du        
   7314 ****       -11.2500  -6.2500  16.0000 Du        
   7315 ****       -11.2500  -6.2500  16.2500 Du        
   7316 ****       -11.2500  -6.2500  16.5000 Du        
   7317 ****       -11.2500  -6.2500  16.7500 Du        
   7318 ****       -11.2500  -6.2500  17.0000 Du        
   7319 ****       -11.2500  -6.2500  17.2500 Du        
   7320 ****       -11.2500  -6.2500  17.5000 Du        
   7321 ****       -11.2500  -6.2500  17.7500 Du        
   7322 ****       -11.2500  -6.2500  18.0000 Du        
   7323 ****       -11.2500  -6.2500  18.2500 Du        
   7324 ****       -11.2500  -6.0000   9.2500 Du        
   7325 ****       -11.2500  -6.0000   9.5000 Du        
   7326 ****       -11.2500  -6.0000   9.7500 Du        
   7327 ****       -11.2500  -6.0000  16.0000 Du        
   7328 ****       -11.2500  -6.0000  16.2500 Du        
   7329 ****       -11.2500  -6.0000  16.5000 Du        
   7330 ****       -11.2500  -6.0000  16.7500 Du        
   7331 ****       -11.2500  -6.0000  17.0000 Du        
   7332 ****       -11.2500  -6.0000  17.2500 Du        
   7333 ****       -11.2500  -6.0000  17.5000 Du        
   7334 ****       -11.2500  -6.0000  17.7500 Du        
   7335 ****       -11.2500  -6.0000  18.0000 Du        
   7336 ****       -11.2500  -6.0000  18.2500 Du        
   7337 ****       -11.2500  -5.7500   9.5000 Du        
   7338 ****       -11.2500  -5.7500   9.7500 Du        
   7339 ****       -11.2500  -5.7500  16.0000 Du        
   7340 ****       -11.2500  -5.7500  16.2500 Du        
   7341 ****       -11.2500  -5.7500  16.5000 Du        
   7342 ****       -11.2500  -5.7500  16.7500 Du        
   7343 ****       -11.2500  -5.7500  17.0000 Du        
   7344 ****       -11.2500  -5.7500  17.2500 Du        
   7345 ****       -11.2500  -5.7500  17.5000 Du        
   7346 ****       -11.2500  -5.7500  17.7500 Du        
   7347 ****       -11.2500  -5.7500  18.0000 Du        
   7348 ****       -11.2500  -5.7500  18.2500 Du        
   7349 ****       -11.2500  -5.5000  16.5000 Du        
   7350 ****       -11.2500  -5.5000  16.7500 Du        
   7351 ****       -11.2500  -5.5000  17.0000 Du        
   7352 ****       -11.2500  -5.5000  17.2500 Du        
   7353 ****       -11.2500  -5.5000  17.5000 Du        
   7354 ****       -11.2500  -5.5000  17.7500 Du        
   7355 ****       -11.2500  -5.5000  18.0000 Du        
   7356 ****       -11.2500  -5.5000  18.2500 Du        
   7357 ****       -11.2500  -5.2500  16.5000 Du        
   7358 ****       -11.2500  -5.2500  16.7500 Du        
   7359 ****       -11.2500  -5.2500  17.0000 Du        
   7360 ****       -11.2500  -5.2500  17.2500 Du        
   7361 ****       -11.2500  -5.2500  17.5000 Du        
   7362 ****       -11.2500  -5.2500  17.7500 Du        
   7363 ****       -11.2500  -5.2500  18.0000 Du        
   7364 ****       -11.2500  -5.2500  18.2500 Du        
   7365 ****       -11.2500  -5.0000  16.5000 Du        
   7366 ****       -11.2500  -5.0000  16.7500 Du        
   7367 ****       -11.2500  -5.0000  17.0000 Du        
   7368 ****       -11.2500  -5.0000  17.2500 Du        
   7369 ****       -11.2500  -5.0000  17.5000 Du        
   7370 ****       -11.2500  -5.0000  17.7500 Du        
   7371 ****       -11.2500  -5.0000  18.0000 Du        
   7372 ****       -11.2500  -5.0000  18.2500 Du        
   7373 ****       -11.2500  -4.7500  16.5000 Du        
   7374 ****       -11.2500  -4.7500  16.7500 Du        
   7375 ****       -11.2500  -4.7500  17.0000 Du        
   7376 ****       -11.2500  -4.7500  17.2500 Du        
   7377 ****       -11.2500  -4.7500  17.5000 Du        
   7378 ****       -11.2500  -4.7500  17.7500 Du        
   7379 ****       -11.2500  -4.7500  18.0000 Du        
   7380 ****       -11.2500  -4.7500  18.2500 Du        
   7381 ****       -11.2500  -4.5000  16.7500 Du        
   7382 ****       -11.2500  -4.5000  17.0000 Du        
   7383 ****       -11.2500  -4.5000  17.2500 Du        
   7384 ****       -11.2500  -4.5000  17.5000 Du        
   7385 ****       -11.2500  -4.5000  17.7500 Du        
   7386 ****       -11.2500  -4.5000  18.0000 Du        
   7387 ****       -11.2500  -4.5000  18.2500 Du        
   7388 ****       -11.2500  -4.2500  16.7500 Du        
   7389 ****       -11.2500  -4.2500  17.0000 Du        
   7390 ****       -11.2500  -4.2500  17.2500 Du        
   7391 ****       -11.2500  -4.2500  17.5000 Du        
   7392 ****       -11.2500  -4.2500  17.7500 Du        
   7393 ****       -11.2500  -4.2500  18.0000 Du        
   7394 ****       -11.2500  -4.2500  18.2500 Du        
   7395 ****       -11.2500  -4.0000  17.0000 Du        
   7396 ****       -11.2500  -4.0000  17.2500 Du        
   7397 ****       -11.2500  -4.0000  17.5000 Du        
   7398 ****       -11.2500  -4.0000  17.7500 Du        
   7399 ****       -11.2500  -4.0000  18.0000 Du        
   7400 ****       -11.2500  -4.0000  18.2500 Du        
   7401 ****       -11.2500  -3.7500  17.0000 Du        
   7402 ****       -11.2500  -3.7500  17.2500 Du        
   7403 ****       -11.2500  -3.7500  17.5000 Du        
   7404 ****       -11.2500  -3.7500  17.7500 Du        
   7405 ****       -11.2500  -3.7500  18.0000 Du        
   7406 ****       -11.2500  -3.7500  18.2500 Du        
   7407 ****       -11.2500  -3.0000  23.7500 Du        
   7408 ****       -11.2500  -3.0000  24.0000 Du        
   7409 ****       -11.2500  -3.0000  24.2500 Du        
   7410 ****       -11.2500  -3.0000  24.5000 Du        
   7411 ****       -11.2500  -2.7500  23.5000 Du        
   7412 ****       -11.2500  -2.7500  23.7500 Du        
   7413 ****       -11.2500  -2.7500  24.0000 Du        
   7414 ****       -11.2500  -2.7500  24.2500 Du        
   7415 ****       -11.2500  -2.7500  24.5000 Du        
   7416 ****       -11.2500  -2.7500  24.7500 Du        
   7417 ****       -11.2500  -2.5000  23.2500 Du        
   7418 ****       -11.2500  -2.5000  23.5000 Du        
   7419 ****       -11.2500  -2.5000  23.7500 Du        
   7420 ****       -11.2500  -2.5000  24.0000 Du        
   7421 ****       -11.2500  -2.5000  24.2500 Du        
   7422 ****       -11.2500  -2.5000  24.5000 Du        
   7423 ****       -11.2500  -2.2500  22.7500 Du        
   7424 ****       -11.2500  -2.2500  23.0000 Du        
   7425 ****       -11.2500  -2.2500  23.2500 Du        
   7426 ****       -11.2500  -2.2500  23.5000 Du        
   7427 ****       -11.2500  -2.2500  23.7500 Du        
   7428 ****       -11.2500  -2.2500  24.0000 Du        
   7429 ****       -11.2500  -2.2500  24.2500 Du        
   7430 ****       -11.2500  -2.2500  24.5000 Du        
   7431 ****       -11.2500  -2.0000  22.2500 Du        
   7432 ****       -11.2500  -2.0000  22.5000 Du        
   7433 ****       -11.2500  -2.0000  22.7500 Du        
   7434 ****       -11.2500  -2.0000  23.0000 Du        
   7435 ****       -11.2500  -2.0000  23.2500 Du        
   7436 ****       -11.2500  -2.0000  23.5000 Du        
   7437 ****       -11.2500  -2.0000  23.7500 Du        
   7438 ****       -11.2500  -2.0000  24.0000 Du        
   7439 ****       -11.2500  -1.7500  22.2500 Du        
   7440 ****       -11.2500  -1.7500  22.5000 Du        
   7441 ****       -11.2500  -1.7500  22.7500 Du        
   7442 ****       -11.2500  -1.7500  23.0000 Du        
   7443 ****       -11.2500  -1.7500  23.2500 Du        
   7444 ****       -11.2500  -1.7500  23.5000 Du        
   7445 ****       -11.2500   3.7500  27.0000 Du        
   7446 ****       -11.2500   3.7500  27.2500 Du        
   7447 ****       -11.2500   3.7500  27.5000 Du        
   7448 ****       -11.2500   4.0000  26.7500 Du        
   7449 ****       -11.2500   4.0000  27.0000 Du        
   7450 ****       -11.2500   4.0000  27.2500 Du        
   7451 ****       -11.2500   4.0000  27.5000 Du        
   7452 ****       -11.2500   4.0000  27.7500 Du        
   7453 ****       -11.2500   4.2500  26.7500 Du        
   7454 ****       -11.2500   4.2500  27.0000 Du        
   7455 ****       -11.2500   4.2500  27.2500 Du        
   7456 ****       -11.2500   4.2500  27.5000 Du        
   7457 ****       -11.2500   4.2500  27.7500 Du        
   7458 ****       -11.0000  -9.0000  16.2500 Du        
   7459 ****       -11.0000  -8.7500   9.5000 Du        
   7460 ****       -11.0000  -8.7500   9.7500 Du        
   7461 ****       -11.0000  -8.7500  15.7500 Du        
   7462 ****       -11.0000  -8.7500  16.0000 Du        
   7463 ****       -11.0000  -8.7500  16.2500 Du        
   7464 ****       -11.0000  -8.7500  16.5000 Du        
   7465 ****       -11.0000  -8.7500  16.7500 Du        
   7466 ****       -11.0000  -8.5000   9.5000 Du        
   7467 ****       -11.0000  -8.5000   9.7500 Du        
   7468 ****       -11.0000  -8.5000  15.7500 Du        
   7469 ****       -11.0000  -8.5000  16.0000 Du        
   7470 ****       -11.0000  -8.5000  16.2500 Du        
   7471 ****       -11.0000  -8.5000  16.5000 Du        
   7472 ****       -11.0000  -8.5000  16.7500 Du        
   7473 ****       -11.0000  -8.5000  17.0000 Du        
   7474 ****       -11.0000  -8.2500   9.5000 Du        
   7475 ****       -11.0000  -8.2500   9.7500 Du        
   7476 ****       -11.0000  -8.2500  10.0000 Du        
   7477 ****       -11.0000  -8.2500  15.7500 Du        
   7478 ****       -11.0000  -8.2500  16.0000 Du        
   7479 ****       -11.0000  -8.2500  16.2500 Du        
   7480 ****       -11.0000  -8.2500  16.5000 Du        
   7481 ****       -11.0000  -8.2500  16.7500 Du        
   7482 ****       -11.0000  -8.2500  17.0000 Du        
   7483 ****       -11.0000  -8.2500  17.2500 Du        
   7484 ****       -11.0000  -8.0000   9.2500 Du        
   7485 ****       -11.0000  -8.0000   9.5000 Du        
   7486 ****       -11.0000  -8.0000   9.7500 Du        
   7487 ****       -11.0000  -8.0000  10.0000 Du        
   7488 ****       -11.0000  -8.0000  15.7500 Du        
   7489 ****       -11.0000  -8.0000  16.0000 Du        
   7490 ****       -11.0000  -8.0000  16.2500 Du        
   7491 ****       -11.0000  -8.0000  16.5000 Du        
   7492 ****       -11.0000  -8.0000  16.7500 Du        
   7493 ****       -11.0000  -8.0000  17.0000 Du        
   7494 ****       -11.0000  -8.0000  17.2500 Du        
   7495 ****       -11.0000  -8.0000  17.5000 Du        
   7496 ****       -11.0000  -8.0000  17.7500 Du        
   7497 ****       -11.0000  -7.7500   9.2500 Du        
   7498 ****       -11.0000  -7.7500   9.5000 Du        
   7499 ****       -11.0000  -7.7500   9.7500 Du        
   7500 ****       -11.0000  -7.7500  16.0000 Du        
   7501 ****       -11.0000  -7.7500  16.2500 Du        
   7502 ****       -11.0000  -7.7500  16.5000 Du        
   7503 ****       -11.0000  -7.7500  16.7500 Du        
   7504 ****       -11.0000  -7.7500  17.0000 Du        
   7505 ****       -11.0000  -7.7500  17.2500 Du        
   7506 ****       -11.0000  -7.7500  17.5000 Du        
   7507 ****       -11.0000  -7.7500  17.7500 Du        
   7508 ****       -11.0000  -7.7500  18.0000 Du        
   7509 ****       -11.0000  -7.5000   9.2500 Du        
   7510 ****       -11.0000  -7.5000   9.5000 Du        
   7511 ****       -11.0000  -7.5000   9.7500 Du        
   7512 ****       -11.0000  -7.5000  16.0000 Du        
   7513 ****       -11.0000  -7.5000  16.2500 Du        
   7514 ****       -11.0000  -7.5000  16.5000 Du        
   7515 ****       -11.0000  -7.5000  16.7500 Du        
   7516 ****       -11.0000  -7.5000  17.0000 Du        
   7517 ****       -11.0000  -7.5000  17.2500 Du        
   7518 ****       -11.0000  -7.5000  17.5000 Du        
   7519 ****       -11.0000  -7.5000  17.7500 Du        
   7520 ****       -11.0000  -7.5000  18.0000 Du        
   7521 ****       -11.0000  -7.5000  18.2500 Du        
   7522 ****       -11.0000  -7.2500   9.2500 Du        
   7523 ****       -11.0000  -7.2500   9.5000 Du        
   7524 ****       -11.0000  -7.2500   9.7500 Du        
   7525 ****       -11.0000  -7.2500  16.0000 Du        
   7526 ****       -11.0000  -7.2500  16.2500 Du        
   7527 ****       -11.0000  -7.2500  16.5000 Du        
   7528 ****       -11.0000  -7.2500  16.7500 Du        
   7529 ****       -11.0000  -7.2500  17.0000 Du        
   7530 ****       -11.0000  -7.2500  17.2500 Du        
   7531 ****       -11.0000  -7.2500  17.5000 Du        
   7532 ****       -11.0000  -7.2500  17.7500 Du        
   7533 ****       -11.0000  -7.2500  18.0000 Du        
   7534 ****       -11.0000  -7.2500  18.2500 Du        
   7535 ****       -11.0000  -7.0000   9.2500 Du        
   7536 ****       -11.0000  -7.0000   9.5000 Du        
   7537 ****       -11.0000  -7.0000   9.7500 Du        
   7538 ****       -11.0000  -7.0000  16.0000 Du        
   7539 ****       -11.0000  -7.0000  16.2500 Du        
   7540 ****       -11.0000  -7.0000  16.5000 Du        
   7541 ****       -11.0000  -7.0000  16.7500 Du        
   7542 ****       -11.0000  -7.0000  17.0000 Du        
   7543 ****       -11.0000  -7.0000  17.2500 Du        
   7544 ****       -11.0000  -7.0000  17.5000 Du        
   7545 ****       -11.0000  -7.0000  17.7500 Du        
   7546 ****       -11.0000  -7.0000  18.0000 Du        
   7547 ****       -11.0000  -7.0000  18.2500 Du        
   7548 ****       -11.0000  -7.0000  18.5000 Du        
   7549 ****       -11.0000  -6.7500   9.2500 Du        
   7550 ****       -11.0000  -6.7500   9.5000 Du        
   7551 ****       -11.0000  -6.7500   9.7500 Du        
   7552 ****       -11.0000  -6.7500  16.0000 Du        
   7553 ****       -11.0000  -6.7500  16.2500 Du        
   7554 ****       -11.0000  -6.7500  16.5000 Du        
   7555 ****       -11.0000  -6.7500  16.7500 Du        
   7556 ****       -11.0000  -6.7500  17.0000 Du        
   7557 ****       -11.0000  -6.7500  17.2500 Du        
   7558 ****       -11.0000  -6.7500  17.5000 Du        
   7559 ****       -11.0000  -6.7500  17.7500 Du        
   7560 ****       -11.0000  -6.7500  18.0000 Du        
   7561 ****       -11.0000  -6.7500  18.2500 Du        
   7562 ****       -11.0000  -6.7500  18.5000 Du        
   7563 ****       -11.0000  -6.5000   9.2500 Du        
   7564 ****       -11.0000  -6.5000   9.5000 Du        
   7565 ****       -11.0000  -6.5000   9.7500 Du        
   7566 ****       -11.0000  -6.5000  16.0000 Du        
   7567 ****       -11.0000  -6.5000  16.2500 Du        
   7568 ****       -11.0000  -6.5000  16.5000 Du        
   7569 ****       -11.0000  -6.5000  16.7500 Du        
   7570 ****       -11.0000  -6.5000  17.0000 Du        
   7571 ****       -11.0000  -6.5000  17.2500 Du        
   7572 ****       -11.0000  -6.5000  17.5000 Du        
   7573 ****       -11.0000  -6.5000  17.7500 Du        
   7574 ****       -11.0000  -6.5000  18.0000 Du        
   7575 ****       -11.0000  -6.5000  18.2500 Du        
   7576 ****       -11.0000  -6.5000  18.5000 Du        
   7577 ****       -11.0000  -6.2500   9.5000 Du        
   7578 ****       -11.0000  -6.2500   9.7500 Du        
   7579 ****       -11.0000  -6.2500  16.0000 Du        
   7580 ****       -11.0000  -6.2500  16.2500 Du        
   7581 ****       -11.0000  -6.2500  16.5000 Du        
   7582 ****       -11.0000  -6.2500  16.7500 Du        
   7583 ****       -11.0000  -6.2500  17.0000 Du        
   7584 ****       -11.0000  -6.2500  17.2500 Du        
   7585 ****       -11.0000  -6.2500  17.5000 Du        
   7586 ****       -11.0000  -6.2500  17.7500 Du        
   7587 ****       -11.0000  -6.2500  18.0000 Du        
   7588 ****       -11.0000  -6.2500  18.2500 Du        
   7589 ****       -11.0000  -6.2500  18.5000 Du        
   7590 ****       -11.0000  -6.0000   9.5000 Du        
   7591 ****       -11.0000  -6.0000  15.7500 Du        
   7592 ****       -11.0000  -6.0000  16.0000 Du        
   7593 ****       -11.0000  -6.0000  16.2500 Du        
   7594 ****       -11.0000  -6.0000  16.5000 Du        
   7595 ****       -11.0000  -6.0000  16.7500 Du        
   7596 ****       -11.0000  -6.0000  17.0000 Du        
   7597 ****       -11.0000  -6.0000  17.2500 Du        
   7598 ****       -11.0000  -6.0000  17.5000 Du        
   7599 ****       -11.0000  -6.0000  17.7500 Du        
   7600 ****       -11.0000  -6.0000  18.0000 Du        
   7601 ****       -11.0000  -6.0000  18.2500 Du        
   7602 ****       -11.0000  -6.0000  18.5000 Du        
   7603 ****       -11.0000  -5.7500  15.7500 Du        
   7604 ****       -11.0000  -5.7500  16.0000 Du        
   7605 ****       -11.0000  -5.7500  16.2500 Du        
   7606 ****       -11.0000  -5.7500  16.5000 Du        
   7607 ****       -11.0000  -5.7500  16.7500 Du        
   7608 ****       -11.0000  -5.7500  17.0000 Du        
   7609 ****       -11.0000  -5.7500  17.2500 Du        
   7610 ****       -11.0000  -5.7500  17.5000 Du        
   7611 ****       -11.0000  -5.7500  17.7500 Du        
   7612 ****       -11.0000  -5.7500  18.0000 Du        
   7613 ****       -11.0000  -5.7500  18.2500 Du        
   7614 ****       -11.0000  -5.7500  18.5000 Du        
   7615 ****       -11.0000  -5.5000  16.0000 Du        
   7616 ****       -11.0000  -5.5000  16.5000 Du        
   7617 ****       -11.0000  -5.5000  16.7500 Du        
   7618 ****       -11.0000  -5.5000  17.0000 Du        
   7619 ****       -11.0000  -5.5000  17.2500 Du        
   7620 ****       -11.0000  -5.5000  17.5000 Du        
   7621 ****       -11.0000  -5.5000  17.7500 Du        
   7622 ****       -11.0000  -5.5000  18.0000 Du        
   7623 ****       -11.0000  -5.5000  18.2500 Du        
   7624 ****       -11.0000  -5.2500  16.0000 Du        
   7625 ****       -11.0000  -5.2500  16.2500 Du        
   7626 ****       -11.0000  -5.2500  16.5000 Du        
   7627 ****       -11.0000  -5.2500  16.7500 Du        
   7628 ****       -11.0000  -5.2500  17.0000 Du        
   7629 ****       -11.0000  -5.2500  17.2500 Du        
   7630 ****       -11.0000  -5.2500  17.5000 Du        
   7631 ****       -11.0000  -5.2500  17.7500 Du        
   7632 ****       -11.0000  -5.2500  18.0000 Du        
   7633 ****       -11.0000  -5.2500  18.2500 Du        
   7634 ****       -11.0000  -5.0000  16.0000 Du        
   7635 ****       -11.0000  -5.0000  16.2500 Du        
   7636 ****       -11.0000  -5.0000  16.5000 Du        
   7637 ****       -11.0000  -5.0000  16.7500 Du        
   7638 ****       -11.0000  -5.0000  17.0000 Du        
   7639 ****       -11.0000  -5.0000  17.2500 Du        
   7640 ****       -11.0000  -5.0000  17.5000 Du        
   7641 ****       -11.0000  -5.0000  17.7500 Du        
   7642 ****       -11.0000  -5.0000  18.0000 Du        
   7643 ****       -11.0000  -5.0000  18.2500 Du        
   7644 ****       -11.0000  -5.0000  18.5000 Du        
   7645 ****       -11.0000  -4.7500  16.0000 Du        
   7646 ****       -11.0000  -4.7500  16.5000 Du        
   7647 ****       -11.0000  -4.7500  16.7500 Du        
   7648 ****       -11.0000  -4.7500  17.0000 Du        
   7649 ****       -11.0000  -4.7500  17.2500 Du        
   7650 ****       -11.0000  -4.7500  17.5000 Du        
   7651 ****       -11.0000  -4.7500  17.7500 Du        
   7652 ****       -11.0000  -4.7500  18.0000 Du        
   7653 ****       -11.0000  -4.7500  18.2500 Du        
   7654 ****       -11.0000  -4.5000  16.7500 Du        
   7655 ****       -11.0000  -4.5000  17.0000 Du        
   7656 ****       -11.0000  -4.5000  17.2500 Du        
   7657 ****       -11.0000  -4.5000  17.5000 Du        
   7658 ****       -11.0000  -4.5000  17.7500 Du        
   7659 ****       -11.0000  -4.5000  18.0000 Du        
   7660 ****       -11.0000  -4.5000  18.2500 Du        
   7661 ****       -11.0000  -4.2500  17.0000 Du        
   7662 ****       -11.0000  -4.2500  17.2500 Du        
   7663 ****       -11.0000  -4.2500  17.5000 Du        
   7664 ****       -11.0000  -4.2500  17.7500 Du        
   7665 ****       -11.0000  -4.2500  18.0000 Du        
   7666 ****       -11.0000  -4.2500  18.2500 Du        
   7667 ****       -11.0000  -4.0000  17.0000 Du        
   7668 ****       -11.0000  -4.0000  17.2500 Du        
   7669 ****       -11.0000  -4.0000  17.5000 Du        
   7670 ****       -11.0000  -4.0000  17.7500 Du        
   7671 ****       -11.0000  -4.0000  18.0000 Du        
   7672 ****       -11.0000  -4.0000  18.2500 Du        
   7673 ****       -11.0000  -3.7500  18.2500 Du        
   7674 ****       -11.0000  -3.0000  24.0000 Du        
   7675 ****       -11.0000  -3.0000  24.2500 Du        
   7676 ****       -11.0000  -3.0000  24.5000 Du        
   7677 ****       -11.0000  -2.7500  23.5000 Du        
   7678 ****       -11.0000  -2.7500  23.7500 Du        
   7679 ****       -11.0000  -2.7500  24.0000 Du        
   7680 ****       -11.0000  -2.7500  24.2500 Du        
   7681 ****       -11.0000  -2.7500  24.5000 Du        
   7682 ****       -11.0000  -2.7500  24.7500 Du        
   7683 ****       -11.0000  -2.5000  23.2500 Du        
   7684 ****       -11.0000  -2.5000  23.5000 Du        
   7685 ****       -11.0000  -2.5000  23.7500 Du        
   7686 ****       -11.0000  -2.5000  24.0000 Du        
   7687 ****       -11.0000  -2.5000  24.2500 Du        
   7688 ****       -11.0000  -2.5000  24.5000 Du        
   7689 ****       -11.0000  -2.5000  24.7500 Du        
   7690 ****       -11.0000  -2.2500  23.0000 Du        
   7691 ****       -11.0000  -2.2500  23.2500 Du        
   7692 ****       -11.0000  -2.2500  23.5000 Du        
   7693 ****       -11.0000  -2.2500  23.7500 Du        
   7694 ****       -11.0000  -2.2500  24.0000 Du        
   7695 ****       -11.0000  -2.2500  24.2500 Du        
   7696 ****       -11.0000  -2.2500  24.5000 Du        
   7697 ****       -11.0000  -2.2500  24.7500 Du        
   7698 ****       -11.0000  -2.0000  22.7500 Du        
   7699 ****       -11.0000  -2.0000  23.0000 Du        
   7700 ****       -11.0000  -2.0000  23.2500 Du        
   7701 ****       -11.0000  -2.0000  23.5000 Du        
   7702 ****       -11.0000  -2.0000  23.7500 Du        
   7703 ****       -11.0000  -2.0000  24.0000 Du        
   7704 ****       -11.0000  -2.0000  24.2500 Du        
   7705 ****       -11.0000  -1.7500  22.7500 Du        
   7706 ****       -11.0000  -1.7500  23.0000 Du        
   7707 ****       -11.0000  -1.7500  23.2500 Du        
   7708 ****       -11.0000  -1.7500  23.5000 Du        
   7709 ****       -11.0000  -1.7500  23.7500 Du        
   7710 ****       -11.0000   3.7500  27.0000 Du        
   7711 ****       -11.0000   4.0000  27.0000 Du        
   7712 ****       -11.0000   4.0000  27.2500 Du        
   7713 ****       -10.7500  -9.0000  15.5000 Du        
   7714 ****       -10.7500  -9.0000  15.7500 Du        
   7715 ****       -10.7500  -9.0000  16.0000 Du        
   7716 ****       -10.7500  -9.0000  16.2500 Du        
   7717 ****       -10.7500  -9.0000  16.5000 Du        
   7718 ****       -10.7500  -8.7500  15.5000 Du        
   7719 ****       -10.7500  -8.7500  15.7500 Du        
   7720 ****       -10.7500  -8.7500  16.0000 Du        
   7721 ****       -10.7500  -8.7500  16.2500 Du        
   7722 ****       -10.7500  -8.7500  16.5000 Du        
   7723 ****       -10.7500  -8.7500  16.7500 Du        
   7724 ****       -10.7500  -8.7500  17.0000 Du        
   7725 ****       -10.7500  -8.5000   9.7500 Du        
   7726 ****       -10.7500  -8.5000  10.0000 Du        
   7727 ****       -10.7500  -8.5000  15.7500 Du        
   7728 ****       -10.7500  -8.5000  16.0000 Du        
   7729 ****       -10.7500  -8.5000  16.2500 Du        
   7730 ****       -10.7500  -8.5000  16.5000 Du        
   7731 ****       -10.7500  -8.5000  16.7500 Du        
   7732 ****       -10.7500  -8.5000  17.0000 Du        
   7733 ****       -10.7500  -8.5000  17.2500 Du        
   7734 ****       -10.7500  -8.2500   9.5000 Du        
   7735 ****       -10.7500  -8.2500   9.7500 Du        
   7736 ****       -10.7500  -8.2500  10.0000 Du        
   7737 ****       -10.7500  -8.2500  15.7500 Du        
   7738 ****       -10.7500  -8.2500  16.0000 Du        
   7739 ****       -10.7500  -8.2500  16.2500 Du        
   7740 ****       -10.7500  -8.2500  16.5000 Du        
   7741 ****       -10.7500  -8.2500  16.7500 Du        
   7742 ****       -10.7500  -8.2500  17.0000 Du        
   7743 ****       -10.7500  -8.2500  17.2500 Du        
   7744 ****       -10.7500  -8.2500  17.5000 Du        
   7745 ****       -10.7500  -8.0000   9.5000 Du        
   7746 ****       -10.7500  -8.0000   9.7500 Du        
   7747 ****       -10.7500  -8.0000  10.0000 Du        
   7748 ****       -10.7500  -8.0000  15.7500 Du        
   7749 ****       -10.7500  -8.0000  16.0000 Du        
   7750 ****       -10.7500  -8.0000  16.2500 Du        
   7751 ****       -10.7500  -8.0000  16.5000 Du        
   7752 ****       -10.7500  -8.0000  16.7500 Du        
   7753 ****       -10.7500  -8.0000  17.0000 Du        
   7754 ****       -10.7500  -8.0000  17.2500 Du        
   7755 ****       -10.7500  -8.0000  17.5000 Du        
   7756 ****       -10.7500  -8.0000  17.7500 Du        
   7757 ****       -10.7500  -8.0000  18.0000 Du        
   7758 ****       -10.7500  -7.7500   9.5000 Du        
   7759 ****       -10.7500  -7.7500   9.7500 Du        
   7760 ****       -10.7500  -7.7500  10.0000 Du        
   7761 ****       -10.7500  -7.7500  15.7500 Du        
   7762 ****       -10.7500  -7.7500  16.0000 Du        
   7763 ****       -10.7500  -7.7500  16.2500 Du        
   7764 ****       -10.7500  -7.7500  16.5000 Du        
   7765 ****       -10.7500  -7.7500  16.7500 Du        
   7766 ****       -10.7500  -7.7500  17.0000 Du        
   7767 ****       -10.7500  -7.7500  17.2500 Du        
   7768 ****       -10.7500  -7.7500  17.5000 Du        
   7769 ****       -10.7500  -7.7500  17.7500 Du        
   7770 ****       -10.7500  -7.7500  18.0000 Du        
   7771 ****       -10.7500  -7.7500  18.2500 Du        
   7772 ****       -10.7500  -7.5000   9.5000 Du        
   7773 ****       -10.7500  -7.5000   9.7500 Du        
   7774 ****       -10.7500  -7.5000  10.0000 Du        
   7775 ****       -10.7500  -7.5000  16.0000 Du        
   7776 ****       -10.7500  -7.5000  16.2500 Du        
   7777 ****       -10.7500  -7.5000  16.5000 Du        
   7778 ****       -10.7500  -7.5000  16.7500 Du        
   7779 ****       -10.7500  -7.5000  17.0000 Du        
   7780 ****       -10.7500  -7.5000  17.2500 Du        
   7781 ****       -10.7500  -7.5000  17.5000 Du        
   7782 ****       -10.7500  -7.5000  17.7500 Du        
   7783 ****       -10.7500  -7.5000  18.0000 Du        
   7784 ****       -10.7500  -7.5000  18.2500 Du        
   7785 ****       -10.7500  -7.2500   9.2500 Du        
   7786 ****       -10.7500  -7.2500   9.5000 Du        
   7787 ****       -10.7500  -7.2500   9.7500 Du        
   7788 ****       -10.7500  -7.2500  10.0000 Du        
   7789 ****       -10.7500  -7.2500  16.0000 Du        
   7790 ****       -10.7500  -7.2500  16.2500 Du        
   7791 ****       -10.7500  -7.2500  16.5000 Du        
   7792 ****       -10.7500  -7.2500  16.7500 Du        
   7793 ****       -10.7500  -7.2500  17.0000 Du        
   7794 ****       -10.7500  -7.2500  17.2500 Du        
   7795 ****       -10.7500  -7.2500  17.5000 Du        
   7796 ****       -10.7500  -7.2500  17.7500 Du        
   7797 ****       -10.7500  -7.2500  18.0000 Du        
   7798 ****       -10.7500  -7.2500  18.2500 Du        
   7799 ****       -10.7500  -7.2500  18.5000 Du        
   7800 ****       -10.7500  -7.0000   9.2500 Du        
   7801 ****       -10.7500  -7.0000   9.5000 Du        
   7802 ****       -10.7500  -7.0000   9.7500 Du        
   7803 ****       -10.7500  -7.0000  16.0000 Du        
   7804 ****       -10.7500  -7.0000  16.2500 Du        
   7805 ****       -10.7500  -7.0000  16.5000 Du        
   7806 ****       -10.7500  -7.0000  16.7500 Du        
   7807 ****       -10.7500  -7.0000  17.0000 Du        
   7808 ****       -10.7500  -7.0000  17.2500 Du        
   7809 ****       -10.7500  -7.0000  17.5000 Du        
   7810 ****       -10.7500  -7.0000  17.7500 Du        
   7811 ****       -10.7500  -7.0000  18.0000 Du        
   7812 ****       -10.7500  -7.0000  18.2500 Du        
   7813 ****       -10.7500  -7.0000  18.5000 Du        
   7814 ****       -10.7500  -6.7500   9.5000 Du        
   7815 ****       -10.7500  -6.7500   9.7500 Du        
   7816 ****       -10.7500  -6.7500  16.0000 Du        
   7817 ****       -10.7500  -6.7500  16.2500 Du        
   7818 ****       -10.7500  -6.7500  16.5000 Du        
   7819 ****       -10.7500  -6.7500  16.7500 Du        
   7820 ****       -10.7500  -6.7500  17.0000 Du        
   7821 ****       -10.7500  -6.7500  17.2500 Du        
   7822 ****       -10.7500  -6.7500  17.5000 Du        
   7823 ****       -10.7500  -6.7500  17.7500 Du        
   7824 ****       -10.7500  -6.7500  18.0000 Du        
   7825 ****       -10.7500  -6.7500  18.2500 Du        
   7826 ****       -10.7500  -6.7500  18.5000 Du        
   7827 ****       -10.7500  -6.5000  16.0000 Du        
   7828 ****       -10.7500  -6.5000  16.2500 Du        
   7829 ****       -10.7500  -6.5000  16.5000 Du        
   7830 ****       -10.7500  -6.5000  16.7500 Du        
   7831 ****       -10.7500  -6.5000  17.0000 Du        
   7832 ****       -10.7500  -6.5000  17.2500 Du        
   7833 ****       -10.7500  -6.5000  17.5000 Du        
   7834 ****       -10.7500  -6.5000  17.7500 Du        
   7835 ****       -10.7500  -6.5000  18.0000 Du        
   7836 ****       -10.7500  -6.5000  18.2500 Du        
   7837 ****       -10.7500  -6.5000  18.5000 Du        
   7838 ****       -10.7500  -6.2500  15.7500 Du        
   7839 ****       -10.7500  -6.2500  16.0000 Du        
   7840 ****       -10.7500  -6.2500  16.2500 Du        
   7841 ****       -10.7500  -6.2500  16.5000 Du        
   7842 ****       -10.7500  -6.2500  16.7500 Du        
   7843 ****       -10.7500  -6.2500  17.0000 Du        
   7844 ****       -10.7500  -6.2500  17.2500 Du        
   7845 ****       -10.7500  -6.2500  17.5000 Du        
   7846 ****       -10.7500  -6.2500  17.7500 Du        
   7847 ****       -10.7500  -6.2500  18.0000 Du        
   7848 ****       -10.7500  -6.2500  18.2500 Du        
   7849 ****       -10.7500  -6.2500  18.5000 Du        
   7850 ****       -10.7500  -6.0000  15.7500 Du        
   7851 ****       -10.7500  -6.0000  16.0000 Du        
   7852 ****       -10.7500  -6.0000  16.2500 Du        
   7853 ****       -10.7500  -6.0000  16.5000 Du        
   7854 ****       -10.7500  -6.0000  16.7500 Du        
   7855 ****       -10.7500  -6.0000  17.0000 Du        
   7856 ****       -10.7500  -6.0000  17.2500 Du        
   7857 ****       -10.7500  -6.0000  17.5000 Du        
   7858 ****       -10.7500  -6.0000  17.7500 Du        
   7859 ****       -10.7500  -6.0000  18.0000 Du        
   7860 ****       -10.7500  -6.0000  18.2500 Du        
   7861 ****       -10.7500  -6.0000  18.5000 Du        
   7862 ****       -10.7500  -5.7500  15.7500 Du        
   7863 ****       -10.7500  -5.7500  16.0000 Du        
   7864 ****       -10.7500  -5.7500  16.2500 Du        
   7865 ****       -10.7500  -5.7500  16.5000 Du        
   7866 ****       -10.7500  -5.7500  16.7500 Du        
   7867 ****       -10.7500  -5.7500  17.0000 Du        
   7868 ****       -10.7500  -5.7500  17.2500 Du        
   7869 ****       -10.7500  -5.7500  17.5000 Du        
   7870 ****       -10.7500  -5.7500  17.7500 Du        
   7871 ****       -10.7500  -5.7500  18.0000 Du        
   7872 ****       -10.7500  -5.7500  18.2500 Du        
   7873 ****       -10.7500  -5.7500  18.5000 Du        
   7874 ****       -10.7500  -5.5000  16.0000 Du        
   7875 ****       -10.7500  -5.5000  16.2500 Du        
   7876 ****       -10.7500  -5.5000  16.5000 Du        
   7877 ****       -10.7500  -5.5000  16.7500 Du        
   7878 ****       -10.7500  -5.5000  17.0000 Du        
   7879 ****       -10.7500  -5.5000  17.2500 Du        
   7880 ****       -10.7500  -5.5000  17.5000 Du        
   7881 ****       -10.7500  -5.5000  17.7500 Du        
   7882 ****       -10.7500  -5.5000  18.0000 Du        
   7883 ****       -10.7500  -5.5000  18.2500 Du        
   7884 ****       -10.7500  -5.2500  15.7500 Du        
   7885 ****       -10.7500  -5.2500  16.0000 Du        
   7886 ****       -10.7500  -5.2500  16.2500 Du        
   7887 ****       -10.7500  -5.2500  16.5000 Du        
   7888 ****       -10.7500  -5.2500  16.7500 Du        
   7889 ****       -10.7500  -5.2500  17.0000 Du        
   7890 ****       -10.7500  -5.2500  17.2500 Du        
   7891 ****       -10.7500  -5.2500  17.5000 Du        
   7892 ****       -10.7500  -5.2500  17.7500 Du        
   7893 ****       -10.7500  -5.2500  18.0000 Du        
   7894 ****       -10.7500  -5.2500  18.2500 Du        
   7895 ****       -10.7500  -5.0000  15.7500 Du        
   7896 ****       -10.7500  -5.0000  16.0000 Du        
   7897 ****       -10.7500  -5.0000  16.2500 Du        
   7898 ****       -10.7500  -5.0000  16.5000 Du        
   7899 ****       -10.7500  -5.0000  16.7500 Du        
   7900 ****       -10.7500  -5.0000  17.0000 Du        
   7901 ****       -10.7500  -5.0000  17.2500 Du        
   7902 ****       -10.7500  -5.0000  17.5000 Du        
   7903 ****       -10.7500  -5.0000  17.7500 Du        
   7904 ****       -10.7500  -5.0000  18.0000 Du        
   7905 ****       -10.7500  -5.0000  18.2500 Du        
   7906 ****       -10.7500  -4.7500  15.7500 Du        
   7907 ****       -10.7500  -4.7500  16.0000 Du        
   7908 ****       -10.7500  -4.7500  16.5000 Du        
   7909 ****       -10.7500  -4.7500  16.7500 Du        
   7910 ****       -10.7500  -4.7500  17.0000 Du        
   7911 ****       -10.7500  -4.7500  17.2500 Du        
   7912 ****       -10.7500  -4.7500  17.5000 Du        
   7913 ****       -10.7500  -4.7500  17.7500 Du        
   7914 ****       -10.7500  -4.7500  18.0000 Du        
   7915 ****       -10.7500  -4.7500  18.2500 Du        
   7916 ****       -10.7500  -4.5000  18.2500 Du        
   7917 ****       -10.7500  -3.0000  24.0000 Du        
   7918 ****       -10.7500  -3.0000  24.2500 Du        
   7919 ****       -10.7500  -2.7500  23.5000 Du        
   7920 ****       -10.7500  -2.7500  23.7500 Du        
   7921 ****       -10.7500  -2.7500  24.0000 Du        
   7922 ****       -10.7500  -2.7500  24.2500 Du        
   7923 ****       -10.7500  -2.7500  24.5000 Du        
   7924 ****       -10.7500  -2.5000  23.5000 Du        
   7925 ****       -10.7500  -2.5000  23.7500 Du        
   7926 ****       -10.7500  -2.5000  24.0000 Du        
   7927 ****       -10.7500  -2.5000  24.2500 Du        
   7928 ****       -10.7500  -2.5000  24.5000 Du        
   7929 ****       -10.7500  -2.5000  24.7500 Du        
   7930 ****       -10.7500  -2.2500  23.2500 Du        
   7931 ****       -10.7500  -2.2500  23.5000 Du        
   7932 ****       -10.7500  -2.2500  23.7500 Du        
   7933 ****       -10.7500  -2.2500  24.0000 Du        
   7934 ****       -10.7500  -2.2500  24.2500 Du        
   7935 ****       -10.7500  -2.2500  24.5000 Du        
   7936 ****       -10.7500  -2.2500  24.7500 Du        
   7937 ****       -10.7500  -2.0000  23.0000 Du        
   7938 ****       -10.7500  -2.0000  23.2500 Du        
   7939 ****       -10.7500  -2.0000  23.5000 Du        
   7940 ****       -10.7500  -2.0000  23.7500 Du        
   7941 ****       -10.7500  -2.0000  24.0000 Du        
   7942 ****       -10.7500  -2.0000  24.2500 Du        
   7943 ****       -10.7500  -2.0000  24.5000 Du        
   7944 ****       -10.7500  -1.7500  23.0000 Du        
   7945 ****       -10.7500  -1.7500  23.2500 Du        
   7946 ****       -10.7500  -1.7500  23.5000 Du        
   7947 ****       -10.7500  -1.7500  23.7500 Du        
   7948 ****       -10.7500  -1.7500  24.0000 Du        
   7949 ****       -10.7500  -1.7500  24.2500 Du        
   7950 ****       -10.7500  -1.5000  23.5000 Du        
   7951 ****       -10.5000  -9.2500  15.5000 Du        
   7952 ****       -10.5000  -9.2500  15.7500 Du        
   7953 ****       -10.5000  -9.2500  16.0000 Du        
   7954 ****       -10.5000  -9.2500  16.2500 Du        
   7955 ****       -10.5000  -9.2500  16.5000 Du        
   7956 ****       -10.5000  -9.0000  15.2500 Du        
   7957 ****       -10.5000  -9.0000  15.5000 Du        
   7958 ****       -10.5000  -9.0000  15.7500 Du        
   7959 ****       -10.5000  -9.0000  16.0000 Du        
   7960 ****       -10.5000  -9.0000  16.2500 Du        
   7961 ****       -10.5000  -9.0000  16.5000 Du        
   7962 ****       -10.5000  -9.0000  16.7500 Du        
   7963 ****       -10.5000  -8.7500  15.5000 Du        
   7964 ****       -10.5000  -8.7500  15.7500 Du        
   7965 ****       -10.5000  -8.7500  16.0000 Du        
   7966 ****       -10.5000  -8.7500  16.2500 Du        
   7967 ****       -10.5000  -8.7500  16.5000 Du        
   7968 ****       -10.5000  -8.7500  16.7500 Du        
   7969 ****       -10.5000  -8.7500  17.0000 Du        
   7970 ****       -10.5000  -8.5000   9.7500 Du        
   7971 ****       -10.5000  -8.5000  10.0000 Du        
   7972 ****       -10.5000  -8.5000  15.5000 Du        
   7973 ****       -10.5000  -8.5000  15.7500 Du        
   7974 ****       -10.5000  -8.5000  16.0000 Du        
   7975 ****       -10.5000  -8.5000  16.2500 Du        
   7976 ****       -10.5000  -8.5000  16.5000 Du        
   7977 ****       -10.5000  -8.5000  16.7500 Du        
   7978 ****       -10.5000  -8.5000  17.0000 Du        
   7979 ****       -10.5000  -8.5000  17.2500 Du        
   7980 ****       -10.5000  -8.2500   9.7500 Du        
   7981 ****       -10.5000  -8.2500  10.0000 Du        
   7982 ****       -10.5000  -8.2500  10.2500 Du        
   7983 ****       -10.5000  -8.2500  15.5000 Du        
   7984 ****       -10.5000  -8.2500  15.7500 Du        
   7985 ****       -10.5000  -8.2500  16.0000 Du        
   7986 ****       -10.5000  -8.2500  16.2500 Du        
   7987 ****       -10.5000  -8.2500  16.5000 Du        
   7988 ****       -10.5000  -8.2500  16.7500 Du        
   7989 ****       -10.5000  -8.2500  17.0000 Du        
   7990 ****       -10.5000  -8.2500  17.2500 Du        
   7991 ****       -10.5000  -8.2500  17.5000 Du        
   7992 ****       -10.5000  -8.2500  17.7500 Du        
   7993 ****       -10.5000  -8.0000   9.7500 Du        
   7994 ****       -10.5000  -8.0000  10.0000 Du        
   7995 ****       -10.5000  -8.0000  10.2500 Du        
   7996 ****       -10.5000  -8.0000  15.7500 Du        
   7997 ****       -10.5000  -8.0000  16.0000 Du        
   7998 ****       -10.5000  -8.0000  16.2500 Du        
   7999 ****       -10.5000  -8.0000  16.5000 Du        
   8000 ****       -10.5000  -8.0000  16.7500 Du        
   8001 ****       -10.5000  -8.0000  17.0000 Du        
   8002 ****       -10.5000  -8.0000  17.2500 Du        
   8003 ****       -10.5000  -8.0000  17.5000 Du        
   8004 ****       -10.5000  -8.0000  17.7500 Du        
   8005 ****       -10.5000  -8.0000  18.0000 Du        
   8006 ****       -10.5000  -8.0000  18.2500 Du        
   8007 ****       -10.5000  -7.7500   9.5000 Du        
   8008 ****       -10.5000  -7.7500   9.7500 Du        
   8009 ****       -10.5000  -7.7500  10.0000 Du        
   8010 ****       -10.5000  -7.7500  10.2500 Du        
   8011 ****       -10.5000  -7.7500  15.7500 Du        
   8012 ****       -10.5000  -7.7500  16.0000 Du        
   8013 ****       -10.5000  -7.7500  16.2500 Du        
   8014 ****       -10.5000  -7.7500  16.5000 Du        
   8015 ****       -10.5000  -7.7500  16.7500 Du        
   8016 ****       -10.5000  -7.7500  17.0000 Du        
   8017 ****       -10.5000  -7.7500  17.2500 Du        
   8018 ****       -10.5000  -7.7500  17.5000 Du        
   8019 ****       -10.5000  -7.7500  17.7500 Du        
   8020 ****       -10.5000  -7.7500  18.0000 Du        
   8021 ****       -10.5000  -7.7500  18.2500 Du        
   8022 ****       -10.5000  -7.5000   9.7500 Du        
   8023 ****       -10.5000  -7.5000  10.0000 Du        
   8024 ****       -10.5000  -7.5000  16.0000 Du        
   8025 ****       -10.5000  -7.5000  16.2500 Du        
   8026 ****       -10.5000  -7.5000  16.5000 Du        
   8027 ****       -10.5000  -7.5000  16.7500 Du        
   8028 ****       -10.5000  -7.5000  17.0000 Du        
   8029 ****       -10.5000  -7.5000  17.2500 Du        
   8030 ****       -10.5000  -7.5000  17.5000 Du        
   8031 ****       -10.5000  -7.5000  17.7500 Du        
   8032 ****       -10.5000  -7.5000  18.0000 Du        
   8033 ****       -10.5000  -7.5000  18.2500 Du        
   8034 ****       -10.5000  -7.2500   9.5000 Du        
   8035 ****       -10.5000  -7.2500   9.7500 Du        
   8036 ****       -10.5000  -7.2500  10.0000 Du        
   8037 ****       -10.5000  -7.2500  16.0000 Du        
   8038 ****       -10.5000  -7.2500  16.2500 Du        
   8039 ****       -10.5000  -7.2500  16.5000 Du        
   8040 ****       -10.5000  -7.2500  16.7500 Du        
   8041 ****       -10.5000  -7.2500  17.0000 Du        
   8042 ****       -10.5000  -7.2500  17.2500 Du        
   8043 ****       -10.5000  -7.2500  17.5000 Du        
   8044 ****       -10.5000  -7.2500  17.7500 Du        
   8045 ****       -10.5000  -7.2500  18.0000 Du        
   8046 ****       -10.5000  -7.2500  18.2500 Du        
   8047 ****       -10.5000  -7.2500  18.5000 Du        
   8048 ****       -10.5000  -7.0000   9.7500 Du        
   8049 ****       -10.5000  -7.0000  16.0000 Du        
   8050 ****       -10.5000  -7.0000  16.2500 Du        
   8051 ****       -10.5000  -7.0000  16.5000 Du        
   8052 ****       -10.5000  -7.0000  16.7500 Du        
   8053 ****       -10.5000  -7.0000  17.0000 Du        
   8054 ****       -10.5000  -7.0000  17.2500 Du        
   8055 ****       -10.5000  -7.0000  17.5000 Du        
   8056 ****       -10.5000  -7.0000  17.7500 Du        
   8057 ****       -10.5000  -7.0000  18.0000 Du        
   8058 ****       -10.5000  -7.0000  18.2500 Du        
   8059 ****       -10.5000  -7.0000  18.5000 Du        
   8060 ****       -10.5000  -6.7500  15.7500 Du        
   8061 ****       -10.5000  -6.7500  16.0000 Du        
   8062 ****       -10.5000  -6.7500  16.2500 Du        
   8063 ****       -10.5000  -6.7500  16.5000 Du        
   8064 ****       -10.5000  -6.7500  16.7500 Du        
   8065 ****       -10.5000  -6.7500  17.0000 Du        
   8066 ****       -10.5000  -6.7500  17.2500 Du        
   8067 ****       -10.5000  -6.7500  17.5000 Du        
   8068 ****       -10.5000  -6.7500  17.7500 Du        
   8069 ****       -10.5000  -6.7500  18.0000 Du        
   8070 ****       -10.5000  -6.7500  18.2500 Du        
   8071 ****       -10.5000  -6.7500  18.5000 Du        
   8072 ****       -10.5000  -6.5000  16.0000 Du        
   8073 ****       -10.5000  -6.5000  16.2500 Du        
   8074 ****       -10.5000  -6.5000  16.5000 Du        
   8075 ****       -10.5000  -6.5000  16.7500 Du        
   8076 ****       -10.5000  -6.5000  17.0000 Du        
   8077 ****       -10.5000  -6.5000  17.2500 Du        
   8078 ****       -10.5000  -6.5000  17.5000 Du        
   8079 ****       -10.5000  -6.5000  17.7500 Du        
   8080 ****       -10.5000  -6.5000  18.0000 Du        
   8081 ****       -10.5000  -6.5000  18.2500 Du        
   8082 ****       -10.5000  -6.5000  18.5000 Du        
   8083 ****       -10.5000  -6.2500  16.0000 Du        
   8084 ****       -10.5000  -6.2500  16.2500 Du        
   8085 ****       -10.5000  -6.2500  16.5000 Du        
   8086 ****       -10.5000  -6.2500  16.7500 Du        
   8087 ****       -10.5000  -6.2500  17.0000 Du        
   8088 ****       -10.5000  -6.2500  17.2500 Du        
   8089 ****       -10.5000  -6.2500  17.5000 Du        
   8090 ****       -10.5000  -6.2500  17.7500 Du        
   8091 ****       -10.5000  -6.2500  18.0000 Du        
   8092 ****       -10.5000  -6.2500  18.2500 Du        
   8093 ****       -10.5000  -6.2500  18.5000 Du        
   8094 ****       -10.5000  -6.0000  16.0000 Du        
   8095 ****       -10.5000  -6.0000  16.2500 Du        
   8096 ****       -10.5000  -6.0000  16.5000 Du        
   8097 ****       -10.5000  -6.0000  16.7500 Du        
   8098 ****       -10.5000  -6.0000  17.0000 Du        
   8099 ****       -10.5000  -6.0000  17.2500 Du        
   8100 ****       -10.5000  -6.0000  17.5000 Du        
   8101 ****       -10.5000  -6.0000  17.7500 Du        
   8102 ****       -10.5000  -6.0000  18.0000 Du        
   8103 ****       -10.5000  -6.0000  18.2500 Du        
   8104 ****       -10.5000  -6.0000  18.5000 Du        
   8105 ****       -10.5000  -5.7500  15.7500 Du        
   8106 ****       -10.5000  -5.7500  16.0000 Du        
   8107 ****       -10.5000  -5.7500  16.2500 Du        
   8108 ****       -10.5000  -5.7500  16.5000 Du        
   8109 ****       -10.5000  -5.7500  16.7500 Du        
   8110 ****       -10.5000  -5.7500  17.0000 Du        
   8111 ****       -10.5000  -5.7500  17.2500 Du        
   8112 ****       -10.5000  -5.7500  17.5000 Du        
   8113 ****       -10.5000  -5.7500  17.7500 Du        
   8114 ****       -10.5000  -5.7500  18.0000 Du        
   8115 ****       -10.5000  -5.7500  18.2500 Du        
   8116 ****       -10.5000  -5.5000  16.5000 Du        
   8117 ****       -10.5000  -5.5000  16.7500 Du        
   8118 ****       -10.5000  -5.5000  17.0000 Du        
   8119 ****       -10.5000  -5.5000  17.2500 Du        
   8120 ****       -10.5000  -5.5000  17.5000 Du        
   8121 ****       -10.5000  -5.5000  17.7500 Du        
   8122 ****       -10.5000  -5.5000  18.0000 Du        
   8123 ****       -10.5000  -5.2500  16.5000 Du        
   8124 ****       -10.5000  -5.2500  16.7500 Du        
   8125 ****       -10.5000  -5.2500  17.0000 Du        
   8126 ****       -10.5000  -5.2500  17.2500 Du        
   8127 ****       -10.5000  -5.2500  17.7500 Du        
   8128 ****       -10.5000  -5.0000  17.0000 Du        
   8129 ****       -10.5000  -3.0000  24.0000 Du        
   8130 ****       -10.5000  -2.7500  23.5000 Du        
   8131 ****       -10.5000  -2.7500  23.7500 Du        
   8132 ****       -10.5000  -2.7500  24.0000 Du        
   8133 ****       -10.5000  -2.7500  24.2500 Du        
   8134 ****       -10.5000  -2.7500  24.5000 Du        
   8135 ****       -10.5000  -2.5000  23.5000 Du        
   8136 ****       -10.5000  -2.5000  23.7500 Du        
   8137 ****       -10.5000  -2.5000  24.0000 Du        
   8138 ****       -10.5000  -2.5000  24.2500 Du        
   8139 ****       -10.5000  -2.5000  24.5000 Du        
   8140 ****       -10.5000  -2.5000  24.7500 Du        
   8141 ****       -10.5000  -2.2500  23.2500 Du        
   8142 ****       -10.5000  -2.2500  23.5000 Du        
   8143 ****       -10.5000  -2.2500  23.7500 Du        
   8144 ****       -10.5000  -2.2500  24.0000 Du        
   8145 ****       -10.5000  -2.2500  24.2500 Du        
   8146 ****       -10.5000  -2.2500  24.5000 Du        
   8147 ****       -10.5000  -2.2500  24.7500 Du        
   8148 ****       -10.5000  -2.2500  25.0000 Du        
   8149 ****       -10.5000  -2.0000  23.0000 Du        
   8150 ****       -10.5000  -2.0000  23.2500 Du        
   8151 ****       -10.5000  -2.0000  23.5000 Du        
   8152 ****       -10.5000  -2.0000  23.7500 Du        
   8153 ****       -10.5000  -2.0000  24.0000 Du        
   8154 ****       -10.5000  -2.0000  24.2500 Du        
   8155 ****       -10.5000  -2.0000  24.5000 Du        
   8156 ****       -10.5000  -2.0000  24.7500 Du        
   8157 ****       -10.5000  -1.7500  23.0000 Du        
   8158 ****       -10.5000  -1.7500  23.2500 Du        
   8159 ****       -10.5000  -1.7500  23.5000 Du        
   8160 ****       -10.5000  -1.7500  23.7500 Du        
   8161 ****       -10.5000  -1.7500  24.0000 Du        
   8162 ****       -10.5000  -1.7500  24.2500 Du        
   8163 ****       -10.5000  -1.7500  24.5000 Du        
   8164 ****       -10.5000  -1.5000  23.7500 Du        
   8165 ****       -10.5000  -1.5000  24.0000 Du        
   8166 ****       -10.2500  -9.7500  16.0000 Du        
   8167 ****       -10.2500  -9.7500  16.2500 Du        
   8168 ****       -10.2500  -9.5000  15.0000 Du        
   8169 ****       -10.2500  -9.5000  15.2500 Du        
   8170 ****       -10.2500  -9.5000  15.5000 Du        
   8171 ****       -10.2500  -9.5000  15.7500 Du        
   8172 ****       -10.2500  -9.5000  16.0000 Du        
   8173 ****       -10.2500  -9.5000  16.2500 Du        
   8174 ****       -10.2500  -9.5000  16.5000 Du        
   8175 ****       -10.2500  -9.2500  15.0000 Du        
   8176 ****       -10.2500  -9.2500  15.2500 Du        
   8177 ****       -10.2500  -9.2500  15.5000 Du        
   8178 ****       -10.2500  -9.2500  15.7500 Du        
   8179 ****       -10.2500  -9.2500  16.0000 Du        
   8180 ****       -10.2500  -9.2500  16.2500 Du        
   8181 ****       -10.2500  -9.2500  16.5000 Du        
   8182 ****       -10.2500  -9.2500  16.7500 Du        
   8183 ****       -10.2500  -9.0000  15.0000 Du        
   8184 ****       -10.2500  -9.0000  15.2500 Du        
   8185 ****       -10.2500  -9.0000  15.5000 Du        
   8186 ****       -10.2500  -9.0000  15.7500 Du        
   8187 ****       -10.2500  -9.0000  16.0000 Du        
   8188 ****       -10.2500  -9.0000  16.2500 Du        
   8189 ****       -10.2500  -9.0000  16.5000 Du        
   8190 ****       -10.2500  -9.0000  16.7500 Du        
   8191 ****       -10.2500  -9.0000  17.0000 Du        
   8192 ****       -10.2500  -8.7500  15.2500 Du        
   8193 ****       -10.2500  -8.7500  15.5000 Du        
   8194 ****       -10.2500  -8.7500  15.7500 Du        
   8195 ****       -10.2500  -8.7500  16.0000 Du        
   8196 ****       -10.2500  -8.7500  16.2500 Du        
   8197 ****       -10.2500  -8.7500  16.5000 Du        
   8198 ****       -10.2500  -8.7500  16.7500 Du        
   8199 ****       -10.2500  -8.7500  17.0000 Du        
   8200 ****       -10.2500  -8.7500  17.2500 Du        
   8201 ****       -10.2500  -8.5000  15.2500 Du        
   8202 ****       -10.2500  -8.5000  15.5000 Du        
   8203 ****       -10.2500  -8.5000  15.7500 Du        
   8204 ****       -10.2500  -8.5000  16.0000 Du        
   8205 ****       -10.2500  -8.5000  16.2500 Du        
   8206 ****       -10.2500  -8.5000  16.5000 Du        
   8207 ****       -10.2500  -8.5000  16.7500 Du        
   8208 ****       -10.2500  -8.5000  17.0000 Du        
   8209 ****       -10.2500  -8.5000  17.2500 Du        
   8210 ****       -10.2500  -8.5000  17.5000 Du        
   8211 ****       -10.2500  -8.5000  17.7500 Du        
   8212 ****       -10.2500  -8.2500   9.7500 Du        
   8213 ****       -10.2500  -8.2500  10.0000 Du        
   8214 ****       -10.2500  -8.2500  10.2500 Du        
   8215 ****       -10.2500  -8.2500  15.5000 Du        
   8216 ****       -10.2500  -8.2500  15.7500 Du        
   8217 ****       -10.2500  -8.2500  16.0000 Du        
   8218 ****       -10.2500  -8.2500  16.2500 Du        
   8219 ****       -10.2500  -8.2500  16.5000 Du        
   8220 ****       -10.2500  -8.2500  16.7500 Du        
   8221 ****       -10.2500  -8.2500  17.0000 Du        
   8222 ****       -10.2500  -8.2500  17.2500 Du        
   8223 ****       -10.2500  -8.2500  17.5000 Du        
   8224 ****       -10.2500  -8.2500  17.7500 Du        
   8225 ****       -10.2500  -8.2500  18.0000 Du        
   8226 ****       -10.2500  -8.0000   9.7500 Du        
   8227 ****       -10.2500  -8.0000  10.0000 Du        
   8228 ****       -10.2500  -8.0000  10.2500 Du        
   8229 ****       -10.2500  -8.0000  15.5000 Du        
   8230 ****       -10.2500  -8.0000  15.7500 Du        
   8231 ****       -10.2500  -8.0000  16.0000 Du        
   8232 ****       -10.2500  -8.0000  16.2500 Du        
   8233 ****       -10.2500  -8.0000  16.5000 Du        
   8234 ****       -10.2500  -8.0000  16.7500 Du        
   8235 ****       -10.2500  -8.0000  17.0000 Du        
   8236 ****       -10.2500  -8.0000  17.2500 Du        
   8237 ****       -10.2500  -8.0000  17.5000 Du        
   8238 ****       -10.2500  -8.0000  17.7500 Du        
   8239 ****       -10.2500  -8.0000  18.0000 Du        
   8240 ****       -10.2500  -8.0000  18.2500 Du        
   8241 ****       -10.2500  -8.0000  18.5000 Du        
   8242 ****       -10.2500  -7.7500   9.7500 Du        
   8243 ****       -10.2500  -7.7500  10.0000 Du        
   8244 ****       -10.2500  -7.7500  10.2500 Du        
   8245 ****       -10.2500  -7.7500  15.5000 Du        
   8246 ****       -10.2500  -7.7500  15.7500 Du        
   8247 ****       -10.2500  -7.7500  16.0000 Du        
   8248 ****       -10.2500  -7.7500  16.2500 Du        
   8249 ****       -10.2500  -7.7500  16.5000 Du        
   8250 ****       -10.2500  -7.7500  16.7500 Du        
   8251 ****       -10.2500  -7.7500  17.0000 Du        
   8252 ****       -10.2500  -7.7500  17.2500 Du        
   8253 ****       -10.2500  -7.7500  17.5000 Du        
   8254 ****       -10.2500  -7.7500  17.7500 Du        
   8255 ****       -10.2500  -7.7500  18.0000 Du        
   8256 ****       -10.2500  -7.7500  18.2500 Du        
   8257 ****       -10.2500  -7.7500  18.5000 Du        
   8258 ****       -10.2500  -7.5000   9.7500 Du        
   8259 ****       -10.2500  -7.5000  10.0000 Du        
   8260 ****       -10.2500  -7.5000  15.7500 Du        
   8261 ****       -10.2500  -7.5000  16.0000 Du        
   8262 ****       -10.2500  -7.5000  16.2500 Du        
   8263 ****       -10.2500  -7.5000  16.5000 Du        
   8264 ****       -10.2500  -7.5000  16.7500 Du        
   8265 ****       -10.2500  -7.5000  17.0000 Du        
   8266 ****       -10.2500  -7.5000  17.2500 Du        
   8267 ****       -10.2500  -7.5000  17.5000 Du        
   8268 ****       -10.2500  -7.5000  17.7500 Du        
   8269 ****       -10.2500  -7.5000  18.0000 Du        
   8270 ****       -10.2500  -7.5000  18.2500 Du        
   8271 ****       -10.2500  -7.5000  18.5000 Du        
   8272 ****       -10.2500  -7.2500   9.7500 Du        
   8273 ****       -10.2500  -7.2500  15.7500 Du        
   8274 ****       -10.2500  -7.2500  16.0000 Du        
   8275 ****       -10.2500  -7.2500  16.2500 Du        
   8276 ****       -10.2500  -7.2500  16.5000 Du        
   8277 ****       -10.2500  -7.2500  16.7500 Du        
   8278 ****       -10.2500  -7.2500  17.0000 Du        
   8279 ****       -10.2500  -7.2500  17.2500 Du        
   8280 ****       -10.2500  -7.2500  17.5000 Du        
   8281 ****       -10.2500  -7.2500  17.7500 Du        
   8282 ****       -10.2500  -7.2500  18.0000 Du        
   8283 ****       -10.2500  -7.2500  18.2500 Du        
   8284 ****       -10.2500  -7.2500  18.5000 Du        
   8285 ****       -10.2500  -7.0000  15.7500 Du        
   8286 ****       -10.2500  -7.0000  16.0000 Du        
   8287 ****       -10.2500  -7.0000  16.2500 Du        
   8288 ****       -10.2500  -7.0000  16.5000 Du        
   8289 ****       -10.2500  -7.0000  16.7500 Du        
   8290 ****       -10.2500  -7.0000  17.0000 Du        
   8291 ****       -10.2500  -7.0000  17.2500 Du        
   8292 ****       -10.2500  -7.0000  17.5000 Du        
   8293 ****       -10.2500  -7.0000  17.7500 Du        
   8294 ****       -10.2500  -7.0000  18.0000 Du        
   8295 ****       -10.2500  -7.0000  18.2500 Du        
   8296 ****       -10.2500  -7.0000  18.5000 Du        
   8297 ****       -10.2500  -7.0000  18.7500 Du        
   8298 ****       -10.2500  -6.7500  15.7500 Du        
   8299 ****       -10.2500  -6.7500  16.0000 Du        
   8300 ****       -10.2500  -6.7500  16.2500 Du        
   8301 ****       -10.2500  -6.7500  16.5000 Du        
   8302 ****       -10.2500  -6.7500  16.7500 Du        
   8303 ****       -10.2500  -6.7500  17.0000 Du        
   8304 ****       -10.2500  -6.7500  17.2500 Du        
   8305 ****       -10.2500  -6.7500  17.5000 Du        
   8306 ****       -10.2500  -6.7500  17.7500 Du        
   8307 ****       -10.2500  -6.7500  18.0000 Du        
   8308 ****       -10.2500  -6.7500  18.2500 Du        
   8309 ****       -10.2500  -6.7500  18.5000 Du        
   8310 ****       -10.2500  -6.7500  18.7500 Du        
   8311 ****       -10.2500  -6.5000  15.7500 Du        
   8312 ****       -10.2500  -6.5000  16.0000 Du        
   8313 ****       -10.2500  -6.5000  16.2500 Du        
   8314 ****       -10.2500  -6.5000  16.5000 Du        
   8315 ****       -10.2500  -6.5000  16.7500 Du        
   8316 ****       -10.2500  -6.5000  17.0000 Du        
   8317 ****       -10.2500  -6.5000  17.2500 Du        
   8318 ****       -10.2500  -6.5000  17.5000 Du        
   8319 ****       -10.2500  -6.5000  17.7500 Du        
   8320 ****       -10.2500  -6.5000  18.0000 Du        
   8321 ****       -10.2500  -6.5000  18.2500 Du        
   8322 ****       -10.2500  -6.5000  18.5000 Du        
   8323 ****       -10.2500  -6.5000  18.7500 Du        
   8324 ****       -10.2500  -6.2500  15.7500 Du        
   8325 ****       -10.2500  -6.2500  16.0000 Du        
   8326 ****       -10.2500  -6.2500  16.2500 Du        
   8327 ****       -10.2500  -6.2500  16.5000 Du        
   8328 ****       -10.2500  -6.2500  16.7500 Du        
   8329 ****       -10.2500  -6.2500  17.0000 Du        
   8330 ****       -10.2500  -6.2500  17.2500 Du        
   8331 ****       -10.2500  -6.2500  17.5000 Du        
   8332 ****       -10.2500  -6.2500  17.7500 Du        
   8333 ****       -10.2500  -6.2500  18.0000 Du        
   8334 ****       -10.2500  -6.2500  18.2500 Du        
   8335 ****       -10.2500  -6.2500  18.5000 Du        
   8336 ****       -10.2500  -6.2500  18.7500 Du        
   8337 ****       -10.2500  -6.0000  15.7500 Du        
   8338 ****       -10.2500  -6.0000  16.0000 Du        
   8339 ****       -10.2500  -6.0000  16.2500 Du        
   8340 ****       -10.2500  -6.0000  16.5000 Du        
   8341 ****       -10.2500  -6.0000  16.7500 Du        
   8342 ****       -10.2500  -6.0000  17.0000 Du        
   8343 ****       -10.2500  -6.0000  17.2500 Du        
   8344 ****       -10.2500  -6.0000  17.5000 Du        
   8345 ****       -10.2500  -6.0000  17.7500 Du        
   8346 ****       -10.2500  -6.0000  18.0000 Du        
   8347 ****       -10.2500  -6.0000  18.2500 Du        
   8348 ****       -10.2500  -6.0000  18.5000 Du        
   8349 ****       -10.2500  -6.0000  18.7500 Du        
   8350 ****       -10.2500  -5.7500  15.7500 Du        
   8351 ****       -10.2500  -5.7500  16.0000 Du        
   8352 ****       -10.2500  -5.7500  16.2500 Du        
   8353 ****       -10.2500  -5.7500  16.5000 Du        
   8354 ****       -10.2500  -5.7500  16.7500 Du        
   8355 ****       -10.2500  -5.7500  17.0000 Du        
   8356 ****       -10.2500  -5.7500  17.2500 Du        
   8357 ****       -10.2500  -5.7500  17.5000 Du        
   8358 ****       -10.2500  -5.7500  17.7500 Du        
   8359 ****       -10.2500  -5.7500  18.0000 Du        
   8360 ****       -10.2500  -5.7500  18.2500 Du        
   8361 ****       -10.2500  -5.7500  18.5000 Du        
   8362 ****       -10.2500  -5.5000  16.5000 Du        
   8363 ****       -10.2500  -5.5000  16.7500 Du        
   8364 ****       -10.2500  -5.5000  17.0000 Du        
   8365 ****       -10.2500  -5.5000  17.2500 Du        
   8366 ****       -10.2500  -5.5000  17.5000 Du        
   8367 ****       -10.2500  -5.5000  17.7500 Du        
   8368 ****       -10.2500  -5.5000  18.0000 Du        
   8369 ****       -10.2500  -5.5000  18.2500 Du        
   8370 ****       -10.2500  -5.2500  15.2500 Du        
   8371 ****       -10.2500  -5.2500  16.5000 Du        
   8372 ****       -10.2500  -5.2500  16.7500 Du        
   8373 ****       -10.2500  -5.2500  17.0000 Du        
   8374 ****       -10.2500  -5.2500  17.2500 Du        
   8375 ****       -10.2500  -5.2500  17.7500 Du        
   8376 ****       -10.2500  -5.2500  18.0000 Du        
   8377 ****       -10.2500  -5.2500  18.2500 Du        
   8378 ****       -10.2500  -5.0000  14.7500 Du        
   8379 ****       -10.2500  -5.0000  15.0000 Du        
   8380 ****       -10.2500  -5.0000  15.2500 Du        
   8381 ****       -10.2500  -4.7500  14.5000 Du        
   8382 ****       -10.2500  -4.7500  14.7500 Du        
   8383 ****       -10.2500  -4.7500  15.0000 Du        
   8384 ****       -10.2500  -4.5000  14.2500 Du        
   8385 ****       -10.2500  -4.5000  14.7500 Du        
   8386 ****       -10.2500  -4.2500  14.0000 Du        
   8387 ****       -10.2500  -4.2500  14.2500 Du        
   8388 ****       -10.2500  -4.2500  14.7500 Du        
   8389 ****       -10.2500  -4.0000  14.0000 Du        
   8390 ****       -10.2500  -4.0000  14.2500 Du        
   8391 ****       -10.2500  -3.7500  14.0000 Du        
   8392 ****       -10.2500  -3.7500  14.2500 Du        
   8393 ****       -10.2500  -3.0000  23.7500 Du        
   8394 ****       -10.2500  -3.0000  24.0000 Du        
   8395 ****       -10.2500  -3.0000  24.2500 Du        
   8396 ****       -10.2500  -2.7500  23.5000 Du        
   8397 ****       -10.2500  -2.7500  23.7500 Du        
   8398 ****       -10.2500  -2.7500  24.0000 Du        
   8399 ****       -10.2500  -2.7500  24.2500 Du        
   8400 ****       -10.2500  -2.7500  24.5000 Du        
   8401 ****       -10.2500  -2.5000  23.5000 Du        
   8402 ****       -10.2500  -2.5000  23.7500 Du        
   8403 ****       -10.2500  -2.5000  24.0000 Du        
   8404 ****       -10.2500  -2.5000  24.2500 Du        
   8405 ****       -10.2500  -2.5000  24.5000 Du        
   8406 ****       -10.2500  -2.5000  24.7500 Du        
   8407 ****       -10.2500  -2.2500  23.0000 Du        
   8408 ****       -10.2500  -2.2500  23.2500 Du        
   8409 ****       -10.2500  -2.2500  23.5000 Du        
   8410 ****       -10.2500  -2.2500  23.7500 Du        
   8411 ****       -10.2500  -2.2500  24.0000 Du        
   8412 ****       -10.2500  -2.2500  24.2500 Du        
   8413 ****       -10.2500  -2.2500  24.5000 Du        
   8414 ****       -10.2500  -2.2500  24.7500 Du        
   8415 ****       -10.2500  -2.2500  25.0000 Du        
   8416 ****       -10.2500  -2.0000  22.7500 Du        
   8417 ****       -10.2500  -2.0000  23.0000 Du        
   8418 ****       -10.2500  -2.0000  23.2500 Du        
   8419 ****       -10.2500  -2.0000  23.5000 Du        
   8420 ****       -10.2500  -2.0000  23.7500 Du        
   8421 ****       -10.2500  -2.0000  24.0000 Du        
   8422 ****       -10.2500  -2.0000  24.2500 Du        
   8423 ****       -10.2500  -2.0000  24.5000 Du        
   8424 ****       -10.2500  -2.0000  24.7500 Du        
   8425 ****       -10.2500  -2.0000  25.0000 Du        
   8426 ****       -10.2500  -2.0000  25.2500 Du        
   8427 ****       -10.2500  -1.7500  23.0000 Du        
   8428 ****       -10.2500  -1.7500  23.2500 Du        
   8429 ****       -10.2500  -1.7500  23.5000 Du        
   8430 ****       -10.2500  -1.7500  23.7500 Du        
   8431 ****       -10.2500  -1.7500  24.0000 Du        
   8432 ****       -10.2500  -1.7500  24.2500 Du        
   8433 ****       -10.2500  -1.7500  24.5000 Du        
   8434 ****       -10.2500  -1.7500  24.7500 Du        
   8435 ****       -10.2500  -1.7500  25.0000 Du        
   8436 ****       -10.2500  -1.5000  23.5000 Du        
   8437 ****       -10.2500  -1.5000  23.7500 Du        
   8438 ****       -10.2500  -1.5000  24.0000 Du        
   8439 ****       -10.2500  -1.5000  24.2500 Du        
   8440 ****       -10.2500  -1.5000  24.5000 Du        
   8441 ****       -10.2500  -1.2500  23.5000 Du        
   8442 ****       -10.2500  -1.2500  23.7500 Du        
   8443 ****       -10.2500  -1.2500  24.0000 Du        
   8444 ****       -10.0000 -10.2500  16.2500 Du        
   8445 ****       -10.0000 -10.0000  15.0000 Du        
   8446 ****       -10.0000 -10.0000  15.2500 Du        
   8447 ****       -10.0000 -10.0000  15.5000 Du        
   8448 ****       -10.0000 -10.0000  15.7500 Du        
   8449 ****       -10.0000 -10.0000  16.0000 Du        
   8450 ****       -10.0000 -10.0000  16.2500 Du        
   8451 ****       -10.0000 -10.0000  16.5000 Du        
   8452 ****       -10.0000 -10.0000  16.7500 Du        
   8453 ****       -10.0000  -9.7500  14.2500 Du        
   8454 ****       -10.0000  -9.7500  14.5000 Du        
   8455 ****       -10.0000  -9.7500  14.7500 Du        
   8456 ****       -10.0000  -9.7500  15.0000 Du        
   8457 ****       -10.0000  -9.7500  15.2500 Du        
   8458 ****       -10.0000  -9.7500  15.5000 Du        
   8459 ****       -10.0000  -9.7500  15.7500 Du        
   8460 ****       -10.0000  -9.7500  16.0000 Du        
   8461 ****       -10.0000  -9.7500  16.2500 Du        
   8462 ****       -10.0000  -9.7500  16.5000 Du        
   8463 ****       -10.0000  -9.7500  16.7500 Du        
   8464 ****       -10.0000  -9.5000  14.5000 Du        
   8465 ****       -10.0000  -9.5000  14.7500 Du        
   8466 ****       -10.0000  -9.5000  15.0000 Du        
   8467 ****       -10.0000  -9.5000  15.2500 Du        
   8468 ****       -10.0000  -9.5000  15.5000 Du        
   8469 ****       -10.0000  -9.5000  15.7500 Du        
   8470 ****       -10.0000  -9.5000  16.0000 Du        
   8471 ****       -10.0000  -9.5000  16.2500 Du        
   8472 ****       -10.0000  -9.5000  16.5000 Du        
   8473 ****       -10.0000  -9.5000  16.7500 Du        
   8474 ****       -10.0000  -9.5000  17.0000 Du        
   8475 ****       -10.0000  -9.2500  14.5000 Du        
   8476 ****       -10.0000  -9.2500  14.7500 Du        
   8477 ****       -10.0000  -9.2500  15.0000 Du        
   8478 ****       -10.0000  -9.2500  15.2500 Du        
   8479 ****       -10.0000  -9.2500  15.5000 Du        
   8480 ****       -10.0000  -9.2500  15.7500 Du        
   8481 ****       -10.0000  -9.2500  16.0000 Du        
   8482 ****       -10.0000  -9.2500  16.2500 Du        
   8483 ****       -10.0000  -9.2500  16.5000 Du        
   8484 ****       -10.0000  -9.2500  16.7500 Du        
   8485 ****       -10.0000  -9.2500  17.0000 Du        
   8486 ****       -10.0000  -9.0000  14.7500 Du        
   8487 ****       -10.0000  -9.0000  15.0000 Du        
   8488 ****       -10.0000  -9.0000  15.2500 Du        
   8489 ****       -10.0000  -9.0000  15.5000 Du        
   8490 ****       -10.0000  -9.0000  15.7500 Du        
   8491 ****       -10.0000  -9.0000  16.0000 Du        
   8492 ****       -10.0000  -9.0000  16.2500 Du        
   8493 ****       -10.0000  -9.0000  16.5000 Du        
   8494 ****       -10.0000  -9.0000  16.7500 Du        
   8495 ****       -10.0000  -9.0000  17.0000 Du        
   8496 ****       -10.0000  -9.0000  17.2500 Du        
   8497 ****       -10.0000  -8.7500  15.0000 Du        
   8498 ****       -10.0000  -8.7500  15.2500 Du        
   8499 ****       -10.0000  -8.7500  15.5000 Du        
   8500 ****       -10.0000  -8.7500  15.7500 Du        
   8501 ****       -10.0000  -8.7500  16.0000 Du        
   8502 ****       -10.0000  -8.7500  16.2500 Du        
   8503 ****       -10.0000  -8.7500  16.5000 Du        
   8504 ****       -10.0000  -8.7500  16.7500 Du        
   8505 ****       -10.0000  -8.7500  17.0000 Du        
   8506 ****       -10.0000  -8.7500  17.2500 Du        
   8507 ****       -10.0000  -8.7500  17.5000 Du        
   8508 ****       -10.0000  -8.7500  17.7500 Du        
   8509 ****       -10.0000  -8.5000  15.2500 Du        
   8510 ****       -10.0000  -8.5000  15.5000 Du        
   8511 ****       -10.0000  -8.5000  15.7500 Du        
   8512 ****       -10.0000  -8.5000  16.0000 Du        
   8513 ****       -10.0000  -8.5000  16.2500 Du        
   8514 ****       -10.0000  -8.5000  16.5000 Du        
   8515 ****       -10.0000  -8.5000  16.7500 Du        
   8516 ****       -10.0000  -8.5000  17.0000 Du        
   8517 ****       -10.0000  -8.5000  17.2500 Du        
   8518 ****       -10.0000  -8.5000  17.5000 Du        
   8519 ****       -10.0000  -8.5000  17.7500 Du        
   8520 ****       -10.0000  -8.5000  18.0000 Du        
   8521 ****       -10.0000  -8.2500  15.2500 Du        
   8522 ****       -10.0000  -8.2500  15.5000 Du        
   8523 ****       -10.0000  -8.2500  15.7500 Du        
   8524 ****       -10.0000  -8.2500  16.0000 Du        
   8525 ****       -10.0000  -8.2500  16.2500 Du        
   8526 ****       -10.0000  -8.2500  16.5000 Du        
   8527 ****       -10.0000  -8.2500  16.7500 Du        
   8528 ****       -10.0000  -8.2500  17.0000 Du        
   8529 ****       -10.0000  -8.2500  17.2500 Du        
   8530 ****       -10.0000  -8.2500  17.5000 Du        
   8531 ****       -10.0000  -8.2500  17.7500 Du        
   8532 ****       -10.0000  -8.2500  18.0000 Du        
   8533 ****       -10.0000  -8.2500  18.2500 Du        
   8534 ****       -10.0000  -8.2500  18.5000 Du        
   8535 ****       -10.0000  -8.0000  10.0000 Du        
   8536 ****       -10.0000  -8.0000  10.2500 Du        
   8537 ****       -10.0000  -8.0000  15.2500 Du        
   8538 ****       -10.0000  -8.0000  15.5000 Du        
   8539 ****       -10.0000  -8.0000  15.7500 Du        
   8540 ****       -10.0000  -8.0000  16.0000 Du        
   8541 ****       -10.0000  -8.0000  16.2500 Du        
   8542 ****       -10.0000  -8.0000  16.5000 Du        
   8543 ****       -10.0000  -8.0000  16.7500 Du        
   8544 ****       -10.0000  -8.0000  17.0000 Du        
   8545 ****       -10.0000  -8.0000  17.2500 Du        
   8546 ****       -10.0000  -8.0000  17.5000 Du        
   8547 ****       -10.0000  -8.0000  17.7500 Du        
   8548 ****       -10.0000  -8.0000  18.0000 Du        
   8549 ****       -10.0000  -8.0000  18.2500 Du        
   8550 ****       -10.0000  -8.0000  18.5000 Du        
   8551 ****       -10.0000  -8.0000  18.7500 Du        
   8552 ****       -10.0000  -7.7500   9.7500 Du        
   8553 ****       -10.0000  -7.7500  10.0000 Du        
   8554 ****       -10.0000  -7.7500  10.2500 Du        
   8555 ****       -10.0000  -7.7500  15.5000 Du        
   8556 ****       -10.0000  -7.7500  15.7500 Du        
   8557 ****       -10.0000  -7.7500  16.0000 Du        
   8558 ****       -10.0000  -7.7500  16.2500 Du        
   8559 ****       -10.0000  -7.7500  16.5000 Du        
   8560 ****       -10.0000  -7.7500  16.7500 Du        
   8561 ****       -10.0000  -7.7500  17.0000 Du        
   8562 ****       -10.0000  -7.7500  17.2500 Du        
   8563 ****       -10.0000  -7.7500  17.5000 Du        
   8564 ****       -10.0000  -7.7500  17.7500 Du        
   8565 ****       -10.0000  -7.7500  18.0000 Du        
   8566 ****       -10.0000  -7.7500  18.2500 Du        
   8567 ****       -10.0000  -7.7500  18.5000 Du        
   8568 ****       -10.0000  -7.7500  18.7500 Du        
   8569 ****       -10.0000  -7.5000  15.7500 Du        
   8570 ****       -10.0000  -7.5000  16.0000 Du        
   8571 ****       -10.0000  -7.5000  16.2500 Du        
   8572 ****       -10.0000  -7.5000  16.5000 Du        
   8573 ****       -10.0000  -7.5000  16.7500 Du        
   8574 ****       -10.0000  -7.5000  17.0000 Du        
   8575 ****       -10.0000  -7.5000  17.2500 Du        
   8576 ****       -10.0000  -7.5000  17.5000 Du        
   8577 ****       -10.0000  -7.5000  17.7500 Du        
   8578 ****       -10.0000  -7.5000  18.0000 Du        
   8579 ****       -10.0000  -7.5000  18.2500 Du        
   8580 ****       -10.0000  -7.5000  18.5000 Du        
   8581 ****       -10.0000  -7.5000  18.7500 Du        
   8582 ****       -10.0000  -7.2500  15.7500 Du        
   8583 ****       -10.0000  -7.2500  16.0000 Du        
   8584 ****       -10.0000  -7.2500  16.2500 Du        
   8585 ****       -10.0000  -7.2500  16.5000 Du        
   8586 ****       -10.0000  -7.2500  16.7500 Du        
   8587 ****       -10.0000  -7.2500  17.0000 Du        
   8588 ****       -10.0000  -7.2500  17.2500 Du        
   8589 ****       -10.0000  -7.2500  17.5000 Du        
   8590 ****       -10.0000  -7.2500  17.7500 Du        
   8591 ****       -10.0000  -7.2500  18.0000 Du        
   8592 ****       -10.0000  -7.2500  18.2500 Du        
   8593 ****       -10.0000  -7.2500  18.5000 Du        
   8594 ****       -10.0000  -7.2500  18.7500 Du        
   8595 ****       -10.0000  -7.0000  15.7500 Du        
   8596 ****       -10.0000  -7.0000  16.0000 Du        
   8597 ****       -10.0000  -7.0000  16.2500 Du        
   8598 ****       -10.0000  -7.0000  16.5000 Du        
   8599 ****       -10.0000  -7.0000  16.7500 Du        
   8600 ****       -10.0000  -7.0000  17.0000 Du        
   8601 ****       -10.0000  -7.0000  17.2500 Du        
   8602 ****       -10.0000  -7.0000  17.5000 Du        
   8603 ****       -10.0000  -7.0000  17.7500 Du        
   8604 ****       -10.0000  -7.0000  18.0000 Du        
   8605 ****       -10.0000  -7.0000  18.2500 Du        
   8606 ****       -10.0000  -7.0000  18.5000 Du        
   8607 ****       -10.0000  -7.0000  18.7500 Du        
   8608 ****       -10.0000  -6.7500  15.5000 Du        
   8609 ****       -10.0000  -6.7500  15.7500 Du        
   8610 ****       -10.0000  -6.7500  16.0000 Du        
   8611 ****       -10.0000  -6.7500  16.2500 Du        
   8612 ****       -10.0000  -6.7500  16.5000 Du        
   8613 ****       -10.0000  -6.7500  16.7500 Du        
   8614 ****       -10.0000  -6.7500  17.0000 Du        
   8615 ****       -10.0000  -6.7500  17.2500 Du        
   8616 ****       -10.0000  -6.7500  17.5000 Du        
   8617 ****       -10.0000  -6.7500  17.7500 Du        
   8618 ****       -10.0000  -6.7500  18.0000 Du        
   8619 ****       -10.0000  -6.7500  18.2500 Du        
   8620 ****       -10.0000  -6.7500  18.5000 Du        
   8621 ****       -10.0000  -6.7500  18.7500 Du        
   8622 ****       -10.0000  -6.5000  15.7500 Du        
   8623 ****       -10.0000  -6.5000  16.0000 Du        
   8624 ****       -10.0000  -6.5000  16.2500 Du        
   8625 ****       -10.0000  -6.5000  16.5000 Du        
   8626 ****       -10.0000  -6.5000  16.7500 Du        
   8627 ****       -10.0000  -6.5000  17.0000 Du        
   8628 ****       -10.0000  -6.5000  17.2500 Du        
   8629 ****       -10.0000  -6.5000  17.5000 Du        
   8630 ****       -10.0000  -6.5000  17.7500 Du        
   8631 ****       -10.0000  -6.5000  18.0000 Du        
   8632 ****       -10.0000  -6.5000  18.2500 Du        
   8633 ****       -10.0000  -6.5000  18.5000 Du        
   8634 ****       -10.0000  -6.5000  18.7500 Du        
   8635 ****       -10.0000  -6.2500  15.5000 Du        
   8636 ****       -10.0000  -6.2500  15.7500 Du        
   8637 ****       -10.0000  -6.2500  16.0000 Du        
   8638 ****       -10.0000  -6.2500  16.2500 Du        
   8639 ****       -10.0000  -6.2500  16.5000 Du        
   8640 ****       -10.0000  -6.2500  16.7500 Du        
   8641 ****       -10.0000  -6.2500  17.0000 Du        
   8642 ****       -10.0000  -6.2500  17.2500 Du        
   8643 ****       -10.0000  -6.2500  17.5000 Du        
   8644 ****       -10.0000  -6.2500  17.7500 Du        
   8645 ****       -10.0000  -6.2500  18.0000 Du        
   8646 ****       -10.0000  -6.2500  18.2500 Du        
   8647 ****       -10.0000  -6.2500  18.5000 Du        
   8648 ****       -10.0000  -6.2500  18.7500 Du        
   8649 ****       -10.0000  -6.0000  15.5000 Du        
   8650 ****       -10.0000  -6.0000  15.7500 Du        
   8651 ****       -10.0000  -6.0000  16.0000 Du        
   8652 ****       -10.0000  -6.0000  16.2500 Du        
   8653 ****       -10.0000  -6.0000  16.5000 Du        
   8654 ****       -10.0000  -6.0000  16.7500 Du        
   8655 ****       -10.0000  -6.0000  17.0000 Du        
   8656 ****       -10.0000  -6.0000  17.2500 Du        
   8657 ****       -10.0000  -6.0000  17.5000 Du        
   8658 ****       -10.0000  -6.0000  17.7500 Du        
   8659 ****       -10.0000  -6.0000  18.0000 Du        
   8660 ****       -10.0000  -6.0000  18.2500 Du        
   8661 ****       -10.0000  -6.0000  18.5000 Du        
   8662 ****       -10.0000  -6.0000  18.7500 Du        
   8663 ****       -10.0000  -5.7500  15.5000 Du        
   8664 ****       -10.0000  -5.7500  15.7500 Du        
   8665 ****       -10.0000  -5.7500  16.0000 Du        
   8666 ****       -10.0000  -5.7500  16.2500 Du        
   8667 ****       -10.0000  -5.7500  16.5000 Du        
   8668 ****       -10.0000  -5.7500  16.7500 Du        
   8669 ****       -10.0000  -5.7500  17.0000 Du        
   8670 ****       -10.0000  -5.7500  17.2500 Du        
   8671 ****       -10.0000  -5.7500  17.5000 Du        
   8672 ****       -10.0000  -5.7500  17.7500 Du        
   8673 ****       -10.0000  -5.7500  18.0000 Du        
   8674 ****       -10.0000  -5.7500  18.2500 Du        
   8675 ****       -10.0000  -5.7500  18.5000 Du        
   8676 ****       -10.0000  -5.7500  18.7500 Du        
   8677 ****       -10.0000  -5.5000  15.0000 Du        
   8678 ****       -10.0000  -5.5000  15.2500 Du        
   8679 ****       -10.0000  -5.5000  15.7500 Du        
   8680 ****       -10.0000  -5.5000  16.0000 Du        
   8681 ****       -10.0000  -5.5000  16.5000 Du        
   8682 ****       -10.0000  -5.5000  16.7500 Du        
   8683 ****       -10.0000  -5.5000  17.0000 Du        
   8684 ****       -10.0000  -5.5000  17.2500 Du        
   8685 ****       -10.0000  -5.5000  18.0000 Du        
   8686 ****       -10.0000  -5.5000  18.2500 Du        
   8687 ****       -10.0000  -5.2500  14.7500 Du        
   8688 ****       -10.0000  -5.2500  15.0000 Du        
   8689 ****       -10.0000  -5.2500  15.2500 Du        
   8690 ****       -10.0000  -5.2500  15.5000 Du        
   8691 ****       -10.0000  -5.2500  15.7500 Du        
   8692 ****       -10.0000  -5.2500  16.7500 Du        
   8693 ****       -10.0000  -5.2500  17.0000 Du        
   8694 ****       -10.0000  -5.2500  18.0000 Du        
   8695 ****       -10.0000  -5.2500  18.2500 Du        
   8696 ****       -10.0000  -5.0000  14.5000 Du        
   8697 ****       -10.0000  -5.0000  14.7500 Du        
   8698 ****       -10.0000  -5.0000  15.0000 Du        
   8699 ****       -10.0000  -5.0000  15.2500 Du        
   8700 ****       -10.0000  -5.0000  15.5000 Du        
   8701 ****       -10.0000  -4.7500  14.2500 Du        
   8702 ****       -10.0000  -4.7500  14.5000 Du        
   8703 ****       -10.0000  -4.7500  14.7500 Du        
   8704 ****       -10.0000  -4.7500  15.0000 Du        
   8705 ****       -10.0000  -4.7500  15.2500 Du        
   8706 ****       -10.0000  -4.5000  14.2500 Du        
   8707 ****       -10.0000  -4.2500  14.0000 Du        
   8708 ****       -10.0000  -4.2500  14.2500 Du        
   8709 ****       -10.0000  -4.0000  14.0000 Du        
   8710 ****       -10.0000  -4.0000  14.2500 Du        
   8711 ****       -10.0000  -3.0000  23.7500 Du        
   8712 ****       -10.0000  -3.0000  24.0000 Du        
   8713 ****       -10.0000  -3.0000  24.2500 Du        
   8714 ****       -10.0000  -2.7500  23.5000 Du        
   8715 ****       -10.0000  -2.7500  23.7500 Du        
   8716 ****       -10.0000  -2.7500  24.0000 Du        
   8717 ****       -10.0000  -2.7500  24.2500 Du        
   8718 ****       -10.0000  -2.7500  24.5000 Du        
   8719 ****       -10.0000  -2.5000  23.2500 Du        
   8720 ****       -10.0000  -2.5000  23.5000 Du        
   8721 ****       -10.0000  -2.5000  23.7500 Du        
   8722 ****       -10.0000  -2.5000  24.0000 Du        
   8723 ****       -10.0000  -2.5000  24.2500 Du        
   8724 ****       -10.0000  -2.5000  24.5000 Du        
   8725 ****       -10.0000  -2.5000  24.7500 Du        
   8726 ****       -10.0000  -2.2500  23.0000 Du        
   8727 ****       -10.0000  -2.2500  23.2500 Du        
   8728 ****       -10.0000  -2.2500  23.5000 Du        
   8729 ****       -10.0000  -2.2500  23.7500 Du        
   8730 ****       -10.0000  -2.2500  24.0000 Du        
   8731 ****       -10.0000  -2.2500  24.2500 Du        
   8732 ****       -10.0000  -2.2500  24.5000 Du        
   8733 ****       -10.0000  -2.2500  24.7500 Du        
   8734 ****       -10.0000  -2.2500  25.0000 Du        
   8735 ****       -10.0000  -2.2500  25.2500 Du        
   8736 ****       -10.0000  -2.0000  22.7500 Du        
   8737 ****       -10.0000  -2.0000  23.0000 Du        
   8738 ****       -10.0000  -2.0000  23.2500 Du        
   8739 ****       -10.0000  -2.0000  23.5000 Du        
   8740 ****       -10.0000  -2.0000  23.7500 Du        
   8741 ****       -10.0000  -2.0000  24.0000 Du        
   8742 ****       -10.0000  -2.0000  24.2500 Du        
   8743 ****       -10.0000  -2.0000  24.5000 Du        
   8744 ****       -10.0000  -2.0000  24.7500 Du        
   8745 ****       -10.0000  -2.0000  25.0000 Du        
   8746 ****       -10.0000  -2.0000  25.2500 Du        
   8747 ****       -10.0000  -2.0000  25.5000 Du        
   8748 ****       -10.0000  -1.7500  22.7500 Du        
   8749 ****       -10.0000  -1.7500  23.0000 Du        
   8750 ****       -10.0000  -1.7500  23.2500 Du        
   8751 ****       -10.0000  -1.7500  23.5000 Du        
   8752 ****       -10.0000  -1.7500  23.7500 Du        
   8753 ****       -10.0000  -1.7500  24.0000 Du        
   8754 ****       -10.0000  -1.7500  24.2500 Du        
   8755 ****       -10.0000  -1.7500  24.5000 Du        
   8756 ****       -10.0000  -1.7500  24.7500 Du        
   8757 ****       -10.0000  -1.7500  25.0000 Du        
   8758 ****       -10.0000  -1.7500  25.2500 Du        
   8759 ****       -10.0000  -1.7500  25.5000 Du        
   8760 ****       -10.0000  -1.5000  23.5000 Du        
   8761 ****       -10.0000  -1.5000  23.7500 Du        
   8762 ****       -10.0000  -1.5000  24.0000 Du        
   8763 ****       -10.0000  -1.5000  24.2500 Du        
   8764 ****       -10.0000  -1.5000  24.5000 Du        
   8765 ****       -10.0000  -1.5000  24.7500 Du        
   8766 ****       -10.0000  -1.5000  25.0000 Du        
   8767 ****       -10.0000  -1.2500  23.5000 Du        
   8768 ****       -10.0000  -1.2500  23.7500 Du        
   8769 ****       -10.0000  -1.2500  24.0000 Du        
   8770 ****       -10.0000  -1.2500  24.2500 Du        
   8771 ****       -10.0000  -1.2500  24.5000 Du        
   8772 ****       -10.0000  -1.2500  24.7500 Du        
   8773 ****       -10.0000  -1.0000  23.7500 Du        
   8774 ****       -10.0000  -1.0000  24.0000 Du        
   8775 ****        -9.7500 -10.7500  16.0000 Du        
   8776 ****        -9.7500 -10.7500  16.2500 Du        
   8777 ****        -9.7500 -10.7500  16.5000 Du        
   8778 ****        -9.7500 -10.7500  16.7500 Du        
   8779 ****        -9.7500 -10.5000  15.5000 Du        
   8780 ****        -9.7500 -10.5000  15.7500 Du        
   8781 ****        -9.7500 -10.5000  16.0000 Du        
   8782 ****        -9.7500 -10.5000  16.2500 Du        
   8783 ****        -9.7500 -10.5000  16.5000 Du        
   8784 ****        -9.7500 -10.5000  16.7500 Du        
   8785 ****        -9.7500 -10.2500  14.7500 Du        
   8786 ****        -9.7500 -10.2500  15.0000 Du        
   8787 ****        -9.7500 -10.2500  15.2500 Du        
   8788 ****        -9.7500 -10.2500  15.5000 Du        
   8789 ****        -9.7500 -10.2500  15.7500 Du        
   8790 ****        -9.7500 -10.2500  16.0000 Du        
   8791 ****        -9.7500 -10.2500  16.2500 Du        
   8792 ****        -9.7500 -10.2500  16.5000 Du        
   8793 ****        -9.7500 -10.2500  16.7500 Du        
   8794 ****        -9.7500 -10.2500  17.0000 Du        
   8795 ****        -9.7500 -10.0000  14.5000 Du        
   8796 ****        -9.7500 -10.0000  14.7500 Du        
   8797 ****        -9.7500 -10.0000  15.0000 Du        
   8798 ****        -9.7500 -10.0000  15.2500 Du        
   8799 ****        -9.7500 -10.0000  15.5000 Du        
   8800 ****        -9.7500 -10.0000  15.7500 Du        
   8801 ****        -9.7500 -10.0000  16.0000 Du        
   8802 ****        -9.7500 -10.0000  16.2500 Du        
   8803 ****        -9.7500 -10.0000  16.5000 Du        
   8804 ****        -9.7500 -10.0000  16.7500 Du        
   8805 ****        -9.7500 -10.0000  17.0000 Du        
   8806 ****        -9.7500  -9.7500  14.0000 Du        
   8807 ****        -9.7500  -9.7500  14.2500 Du        
   8808 ****        -9.7500  -9.7500  14.5000 Du        
   8809 ****        -9.7500  -9.7500  14.7500 Du        
   8810 ****        -9.7500  -9.7500  15.0000 Du        
   8811 ****        -9.7500  -9.7500  15.2500 Du        
   8812 ****        -9.7500  -9.7500  15.5000 Du        
   8813 ****        -9.7500  -9.7500  15.7500 Du        
   8814 ****        -9.7500  -9.7500  16.0000 Du        
   8815 ****        -9.7500  -9.7500  16.2500 Du        
   8816 ****        -9.7500  -9.7500  16.5000 Du        
   8817 ****        -9.7500  -9.7500  16.7500 Du        
   8818 ****        -9.7500  -9.7500  17.0000 Du        
   8819 ****        -9.7500  -9.5000  14.0000 Du        
   8820 ****        -9.7500  -9.5000  14.2500 Du        
   8821 ****        -9.7500  -9.5000  14.5000 Du        
   8822 ****        -9.7500  -9.5000  14.7500 Du        
   8823 ****        -9.7500  -9.5000  15.0000 Du        
   8824 ****        -9.7500  -9.5000  15.2500 Du        
   8825 ****        -9.7500  -9.5000  15.5000 Du        
   8826 ****        -9.7500  -9.5000  15.7500 Du        
   8827 ****        -9.7500  -9.5000  16.0000 Du        
   8828 ****        -9.7500  -9.5000  16.2500 Du        
   8829 ****        -9.7500  -9.5000  16.5000 Du        
   8830 ****        -9.7500  -9.5000  16.7500 Du        
   8831 ****        -9.7500  -9.5000  17.0000 Du        
   8832 ****        -9.7500  -9.5000  17.2500 Du        
   8833 ****        -9.7500  -9.2500  14.2500 Du        
   8834 ****        -9.7500  -9.2500  14.5000 Du        
   8835 ****        -9.7500  -9.2500  14.7500 Du        
   8836 ****        -9.7500  -9.2500  15.0000 Du        
   8837 ****        -9.7500  -9.2500  15.2500 Du        
   8838 ****        -9.7500  -9.2500  15.5000 Du        
   8839 ****        -9.7500  -9.2500  15.7500 Du        
   8840 ****        -9.7500  -9.2500  16.0000 Du        
   8841 ****        -9.7500  -9.2500  16.2500 Du        
   8842 ****        -9.7500  -9.2500  16.5000 Du        
   8843 ****        -9.7500  -9.2500  16.7500 Du        
   8844 ****        -9.7500  -9.2500  17.0000 Du        
   8845 ****        -9.7500  -9.2500  17.2500 Du        
   8846 ****        -9.7500  -9.2500  17.5000 Du        
   8847 ****        -9.7500  -9.0000  14.5000 Du        
   8848 ****        -9.7500  -9.0000  14.7500 Du        
   8849 ****        -9.7500  -9.0000  15.0000 Du        
   8850 ****        -9.7500  -9.0000  15.2500 Du        
   8851 ****        -9.7500  -9.0000  15.5000 Du        
   8852 ****        -9.7500  -9.0000  15.7500 Du        
   8853 ****        -9.7500  -9.0000  16.0000 Du        
   8854 ****        -9.7500  -9.0000  16.2500 Du        
   8855 ****        -9.7500  -9.0000  16.5000 Du        
   8856 ****        -9.7500  -9.0000  16.7500 Du        
   8857 ****        -9.7500  -9.0000  17.0000 Du        
   8858 ****        -9.7500  -9.0000  17.2500 Du        
   8859 ****        -9.7500  -9.0000  17.5000 Du        
   8860 ****        -9.7500  -9.0000  17.7500 Du        
   8861 ****        -9.7500  -8.7500  14.7500 Du        
   8862 ****        -9.7500  -8.7500  15.0000 Du        
   8863 ****        -9.7500  -8.7500  15.2500 Du        
   8864 ****        -9.7500  -8.7500  15.5000 Du        
   8865 ****        -9.7500  -8.7500  15.7500 Du        
   8866 ****        -9.7500  -8.7500  16.0000 Du        
   8867 ****        -9.7500  -8.7500  16.2500 Du        
   8868 ****        -9.7500  -8.7500  16.5000 Du        
   8869 ****        -9.7500  -8.7500  16.7500 Du        
   8870 ****        -9.7500  -8.7500  17.0000 Du        
   8871 ****        -9.7500  -8.7500  17.2500 Du        
   8872 ****        -9.7500  -8.7500  17.5000 Du        
   8873 ****        -9.7500  -8.7500  17.7500 Du        
   8874 ****        -9.7500  -8.7500  18.0000 Du        
   8875 ****        -9.7500  -8.7500  18.2500 Du        
   8876 ****        -9.7500  -8.5000  15.0000 Du        
   8877 ****        -9.7500  -8.5000  15.2500 Du        
   8878 ****        -9.7500  -8.5000  15.5000 Du        
   8879 ****        -9.7500  -8.5000  15.7500 Du        
   8880 ****        -9.7500  -8.5000  16.0000 Du        
   8881 ****        -9.7500  -8.5000  16.2500 Du        
   8882 ****        -9.7500  -8.5000  16.5000 Du        
   8883 ****        -9.7500  -8.5000  16.7500 Du        
   8884 ****        -9.7500  -8.5000  17.0000 Du        
   8885 ****        -9.7500  -8.5000  17.2500 Du        
   8886 ****        -9.7500  -8.5000  17.5000 Du        
   8887 ****        -9.7500  -8.5000  17.7500 Du        
   8888 ****        -9.7500  -8.5000  18.0000 Du        
   8889 ****        -9.7500  -8.5000  18.2500 Du        
   8890 ****        -9.7500  -8.5000  18.5000 Du        
   8891 ****        -9.7500  -8.5000  18.7500 Du        
   8892 ****        -9.7500  -8.2500  15.2500 Du        
   8893 ****        -9.7500  -8.2500  15.5000 Du        
   8894 ****        -9.7500  -8.2500  15.7500 Du        
   8895 ****        -9.7500  -8.2500  16.0000 Du        
   8896 ****        -9.7500  -8.2500  16.2500 Du        
   8897 ****        -9.7500  -8.2500  16.5000 Du        
   8898 ****        -9.7500  -8.2500  16.7500 Du        
   8899 ****        -9.7500  -8.2500  17.0000 Du        
   8900 ****        -9.7500  -8.2500  17.2500 Du        
   8901 ****        -9.7500  -8.2500  17.5000 Du        
   8902 ****        -9.7500  -8.2500  17.7500 Du        
   8903 ****        -9.7500  -8.2500  18.0000 Du        
   8904 ****        -9.7500  -8.2500  18.2500 Du        
   8905 ****        -9.7500  -8.2500  18.5000 Du        
   8906 ****        -9.7500  -8.2500  18.7500 Du        
   8907 ****        -9.7500  -8.2500  19.0000 Du        
   8908 ****        -9.7500  -8.0000  15.2500 Du        
   8909 ****        -9.7500  -8.0000  15.5000 Du        
   8910 ****        -9.7500  -8.0000  15.7500 Du        
   8911 ****        -9.7500  -8.0000  16.0000 Du        
   8912 ****        -9.7500  -8.0000  16.2500 Du        
   8913 ****        -9.7500  -8.0000  16.5000 Du        
   8914 ****        -9.7500  -8.0000  16.7500 Du        
   8915 ****        -9.7500  -8.0000  17.0000 Du        
   8916 ****        -9.7500  -8.0000  17.2500 Du        
   8917 ****        -9.7500  -8.0000  17.5000 Du        
   8918 ****        -9.7500  -8.0000  17.7500 Du        
   8919 ****        -9.7500  -8.0000  18.0000 Du        
   8920 ****        -9.7500  -8.0000  18.2500 Du        
   8921 ****        -9.7500  -8.0000  18.5000 Du        
   8922 ****        -9.7500  -8.0000  18.7500 Du        
   8923 ****        -9.7500  -8.0000  19.0000 Du        
   8924 ****        -9.7500  -7.7500  15.2500 Du        
   8925 ****        -9.7500  -7.7500  15.5000 Du        
   8926 ****        -9.7500  -7.7500  15.7500 Du        
   8927 ****        -9.7500  -7.7500  16.0000 Du        
   8928 ****        -9.7500  -7.7500  16.2500 Du        
   8929 ****        -9.7500  -7.7500  16.5000 Du        
   8930 ****        -9.7500  -7.7500  16.7500 Du        
   8931 ****        -9.7500  -7.7500  17.0000 Du        
   8932 ****        -9.7500  -7.7500  17.2500 Du        
   8933 ****        -9.7500  -7.7500  17.5000 Du        
   8934 ****        -9.7500  -7.7500  17.7500 Du        
   8935 ****        -9.7500  -7.7500  18.0000 Du        
   8936 ****        -9.7500  -7.7500  18.2500 Du        
   8937 ****        -9.7500  -7.7500  18.5000 Du        
   8938 ****        -9.7500  -7.7500  18.7500 Du        
   8939 ****        -9.7500  -7.7500  19.0000 Du        
   8940 ****        -9.7500  -7.5000  15.5000 Du        
   8941 ****        -9.7500  -7.5000  15.7500 Du        
   8942 ****        -9.7500  -7.5000  16.0000 Du        
   8943 ****        -9.7500  -7.5000  16.2500 Du        
   8944 ****        -9.7500  -7.5000  16.5000 Du        
   8945 ****        -9.7500  -7.5000  16.7500 Du        
   8946 ****        -9.7500  -7.5000  17.0000 Du        
   8947 ****        -9.7500  -7.5000  17.2500 Du        
   8948 ****        -9.7500  -7.5000  17.5000 Du        
   8949 ****        -9.7500  -7.5000  17.7500 Du        
   8950 ****        -9.7500  -7.5000  18.0000 Du        
   8951 ****        -9.7500  -7.5000  18.2500 Du        
   8952 ****        -9.7500  -7.5000  18.5000 Du        
   8953 ****        -9.7500  -7.5000  18.7500 Du        
   8954 ****        -9.7500  -7.5000  19.0000 Du        
   8955 ****        -9.7500  -7.2500  15.5000 Du        
   8956 ****        -9.7500  -7.2500  15.7500 Du        
   8957 ****        -9.7500  -7.2500  16.0000 Du        
   8958 ****        -9.7500  -7.2500  16.2500 Du        
   8959 ****        -9.7500  -7.2500  16.5000 Du        
   8960 ****        -9.7500  -7.2500  16.7500 Du        
   8961 ****        -9.7500  -7.2500  17.0000 Du        
   8962 ****        -9.7500  -7.2500  17.2500 Du        
   8963 ****        -9.7500  -7.2500  17.5000 Du        
   8964 ****        -9.7500  -7.2500  17.7500 Du        
   8965 ****        -9.7500  -7.2500  18.0000 Du        
   8966 ****        -9.7500  -7.2500  18.2500 Du        
   8967 ****        -9.7500  -7.2500  18.5000 Du        
   8968 ****        -9.7500  -7.2500  18.7500 Du        
   8969 ****        -9.7500  -7.2500  19.0000 Du        
   8970 ****        -9.7500  -7.0000  15.5000 Du        
   8971 ****        -9.7500  -7.0000  15.7500 Du        
   8972 ****        -9.7500  -7.0000  16.0000 Du        
   8973 ****        -9.7500  -7.0000  16.2500 Du        
   8974 ****        -9.7500  -7.0000  16.5000 Du        
   8975 ****        -9.7500  -7.0000  16.7500 Du        
   8976 ****        -9.7500  -7.0000  17.0000 Du        
   8977 ****        -9.7500  -7.0000  17.2500 Du        
   8978 ****        -9.7500  -7.0000  17.5000 Du        
   8979 ****        -9.7500  -7.0000  17.7500 Du        
   8980 ****        -9.7500  -7.0000  18.0000 Du        
   8981 ****        -9.7500  -7.0000  18.2500 Du        
   8982 ****        -9.7500  -7.0000  18.5000 Du        
   8983 ****        -9.7500  -7.0000  18.7500 Du        
   8984 ****        -9.7500  -7.0000  19.0000 Du        
   8985 ****        -9.7500  -6.7500  15.5000 Du        
   8986 ****        -9.7500  -6.7500  15.7500 Du        
   8987 ****        -9.7500  -6.7500  16.0000 Du        
   8988 ****        -9.7500  -6.7500  16.2500 Du        
   8989 ****        -9.7500  -6.7500  16.5000 Du        
   8990 ****        -9.7500  -6.7500  16.7500 Du        
   8991 ****        -9.7500  -6.7500  17.0000 Du        
   8992 ****        -9.7500  -6.7500  17.2500 Du        
   8993 ****        -9.7500  -6.7500  17.5000 Du        
   8994 ****        -9.7500  -6.7500  17.7500 Du        
   8995 ****        -9.7500  -6.7500  18.0000 Du        
   8996 ****        -9.7500  -6.7500  18.2500 Du        
   8997 ****        -9.7500  -6.7500  18.5000 Du        
   8998 ****        -9.7500  -6.7500  18.7500 Du        
   8999 ****        -9.7500  -6.7500  19.0000 Du        
   9000 ****        -9.7500  -6.5000  15.7500 Du        
   9001 ****        -9.7500  -6.5000  16.0000 Du        
   9002 ****        -9.7500  -6.5000  16.2500 Du        
   9003 ****        -9.7500  -6.5000  16.5000 Du        
   9004 ****        -9.7500  -6.5000  16.7500 Du        
   9005 ****        -9.7500  -6.5000  17.0000 Du        
   9006 ****        -9.7500  -6.5000  17.2500 Du        
   9007 ****        -9.7500  -6.5000  17.5000 Du        
   9008 ****        -9.7500  -6.5000  17.7500 Du        
   9009 ****        -9.7500  -6.5000  18.0000 Du        
   9010 ****        -9.7500  -6.5000  18.2500 Du        
   9011 ****        -9.7500  -6.5000  18.5000 Du        
   9012 ****        -9.7500  -6.5000  18.7500 Du        
   9013 ****        -9.7500  -6.5000  19.0000 Du        
   9014 ****        -9.7500  -6.2500  15.5000 Du        
   9015 ****        -9.7500  -6.2500  15.7500 Du        
   9016 ****        -9.7500  -6.2500  16.0000 Du        
   9017 ****        -9.7500  -6.2500  16.2500 Du        
   9018 ****        -9.7500  -6.2500  16.5000 Du        
   9019 ****        -9.7500  -6.2500  16.7500 Du        
   9020 ****        -9.7500  -6.2500  17.0000 Du        
   9021 ****        -9.7500  -6.2500  17.2500 Du        
   9022 ****        -9.7500  -6.2500  17.5000 Du        
   9023 ****        -9.7500  -6.2500  17.7500 Du        
   9024 ****        -9.7500  -6.2500  18.0000 Du        
   9025 ****        -9.7500  -6.2500  18.2500 Du        
   9026 ****        -9.7500  -6.2500  18.5000 Du        
   9027 ****        -9.7500  -6.2500  18.7500 Du        
   9028 ****        -9.7500  -6.2500  19.0000 Du        
   9029 ****        -9.7500  -6.0000  15.5000 Du        
   9030 ****        -9.7500  -6.0000  15.7500 Du        
   9031 ****        -9.7500  -6.0000  16.0000 Du        
   9032 ****        -9.7500  -6.0000  16.2500 Du        
   9033 ****        -9.7500  -6.0000  16.5000 Du        
   9034 ****        -9.7500  -6.0000  16.7500 Du        
   9035 ****        -9.7500  -6.0000  17.0000 Du        
   9036 ****        -9.7500  -6.0000  17.2500 Du        
   9037 ****        -9.7500  -6.0000  17.5000 Du        
   9038 ****        -9.7500  -6.0000  17.7500 Du        
   9039 ****        -9.7500  -6.0000  18.0000 Du        
   9040 ****        -9.7500  -6.0000  18.2500 Du        
   9041 ****        -9.7500  -6.0000  18.5000 Du        
   9042 ****        -9.7500  -6.0000  18.7500 Du        
   9043 ****        -9.7500  -6.0000  19.0000 Du        
   9044 ****        -9.7500  -5.7500  15.2500 Du        
   9045 ****        -9.7500  -5.7500  15.5000 Du        
   9046 ****        -9.7500  -5.7500  15.7500 Du        
   9047 ****        -9.7500  -5.7500  16.0000 Du        
   9048 ****        -9.7500  -5.7500  16.2500 Du        
   9049 ****        -9.7500  -5.7500  16.5000 Du        
   9050 ****        -9.7500  -5.7500  16.7500 Du        
   9051 ****        -9.7500  -5.7500  17.0000 Du        
   9052 ****        -9.7500  -5.7500  17.2500 Du        
   9053 ****        -9.7500  -5.7500  17.5000 Du        
   9054 ****        -9.7500  -5.7500  17.7500 Du        
   9055 ****        -9.7500  -5.7500  18.0000 Du        
   9056 ****        -9.7500  -5.7500  18.2500 Du        
   9057 ****        -9.7500  -5.7500  18.5000 Du        
   9058 ****        -9.7500  -5.5000  15.0000 Du        
   9059 ****        -9.7500  -5.5000  15.2500 Du        
   9060 ****        -9.7500  -5.5000  15.5000 Du        
   9061 ****        -9.7500  -5.5000  15.7500 Du        
   9062 ****        -9.7500  -5.5000  18.0000 Du        
   9063 ****        -9.7500  -5.5000  18.2500 Du        
   9064 ****        -9.7500  -5.2500  14.7500 Du        
   9065 ****        -9.7500  -5.2500  15.0000 Du        
   9066 ****        -9.7500  -5.2500  15.2500 Du        
   9067 ****        -9.7500  -5.0000  14.5000 Du        
   9068 ****        -9.7500  -5.0000  14.7500 Du        
   9069 ****        -9.7500  -5.0000  15.0000 Du        
   9070 ****        -9.7500  -4.7500  14.5000 Du        
   9071 ****        -9.7500  -4.7500  14.7500 Du        
   9072 ****        -9.7500  -3.0000  23.5000 Du        
   9073 ****        -9.7500  -3.0000  23.7500 Du        
   9074 ****        -9.7500  -3.0000  24.0000 Du        
   9075 ****        -9.7500  -3.0000  24.2500 Du        
   9076 ****        -9.7500  -2.7500  23.2500 Du        
   9077 ****        -9.7500  -2.7500  23.5000 Du        
   9078 ****        -9.7500  -2.7500  23.7500 Du        
   9079 ****        -9.7500  -2.7500  24.0000 Du        
   9080 ****        -9.7500  -2.7500  24.2500 Du        
   9081 ****        -9.7500  -2.7500  24.5000 Du        
   9082 ****        -9.7500  -2.5000  23.0000 Du        
   9083 ****        -9.7500  -2.5000  23.2500 Du        
   9084 ****        -9.7500  -2.5000  23.5000 Du        
   9085 ****        -9.7500  -2.5000  23.7500 Du        
   9086 ****        -9.7500  -2.5000  24.0000 Du        
   9087 ****        -9.7500  -2.5000  24.2500 Du        
   9088 ****        -9.7500  -2.5000  24.5000 Du        
   9089 ****        -9.7500  -2.5000  24.7500 Du        
   9090 ****        -9.7500  -2.2500  22.7500 Du        
   9091 ****        -9.7500  -2.2500  23.0000 Du        
   9092 ****        -9.7500  -2.2500  23.2500 Du        
   9093 ****        -9.7500  -2.2500  23.5000 Du        
   9094 ****        -9.7500  -2.2500  23.7500 Du        
   9095 ****        -9.7500  -2.2500  24.0000 Du        
   9096 ****        -9.7500  -2.2500  24.2500 Du        
   9097 ****        -9.7500  -2.2500  24.5000 Du        
   9098 ****        -9.7500  -2.2500  24.7500 Du        
   9099 ****        -9.7500  -2.2500  25.0000 Du        
   9100 ****        -9.7500  -2.2500  25.2500 Du        
   9101 ****        -9.7500  -2.2500  25.5000 Du        
   9102 ****        -9.7500  -2.0000  22.7500 Du        
   9103 ****        -9.7500  -2.0000  23.0000 Du        
   9104 ****        -9.7500  -2.0000  23.2500 Du        
   9105 ****        -9.7500  -2.0000  23.5000 Du        
   9106 ****        -9.7500  -2.0000  23.7500 Du        
   9107 ****        -9.7500  -2.0000  24.0000 Du        
   9108 ****        -9.7500  -2.0000  24.2500 Du        
   9109 ****        -9.7500  -2.0000  24.5000 Du        
   9110 ****        -9.7500  -2.0000  24.7500 Du        
   9111 ****        -9.7500  -2.0000  25.0000 Du        
   9112 ****        -9.7500  -2.0000  25.2500 Du        
   9113 ****        -9.7500  -2.0000  25.5000 Du        
   9114 ****        -9.7500  -2.0000  25.7500 Du        
   9115 ****        -9.7500  -2.0000  26.0000 Du        
   9116 ****        -9.7500  -1.7500  22.7500 Du        
   9117 ****        -9.7500  -1.7500  23.0000 Du        
   9118 ****        -9.7500  -1.7500  23.2500 Du        
   9119 ****        -9.7500  -1.7500  23.5000 Du        
   9120 ****        -9.7500  -1.7500  23.7500 Du        
   9121 ****        -9.7500  -1.7500  24.0000 Du        
   9122 ****        -9.7500  -1.7500  24.2500 Du        
   9123 ****        -9.7500  -1.7500  24.5000 Du        
   9124 ****        -9.7500  -1.7500  24.7500 Du        
   9125 ****        -9.7500  -1.7500  25.0000 Du        
   9126 ****        -9.7500  -1.7500  25.2500 Du        
   9127 ****        -9.7500  -1.7500  25.5000 Du        
   9128 ****        -9.7500  -1.7500  25.7500 Du        
   9129 ****        -9.7500  -1.7500  26.0000 Du        
   9130 ****        -9.7500  -1.5000  23.0000 Du        
   9131 ****        -9.7500  -1.5000  23.2500 Du        
   9132 ****        -9.7500  -1.5000  23.5000 Du        
   9133 ****        -9.7500  -1.5000  23.7500 Du        
   9134 ****        -9.7500  -1.5000  24.0000 Du        
   9135 ****        -9.7500  -1.5000  24.2500 Du        
   9136 ****        -9.7500  -1.5000  24.5000 Du        
   9137 ****        -9.7500  -1.5000  24.7500 Du        
   9138 ****        -9.7500  -1.5000  25.0000 Du        
   9139 ****        -9.7500  -1.5000  25.2500 Du        
   9140 ****        -9.7500  -1.5000  25.5000 Du        
   9141 ****        -9.7500  -1.5000  25.7500 Du        
   9142 ****        -9.7500  -1.2500  23.5000 Du        
   9143 ****        -9.7500  -1.2500  23.7500 Du        
   9144 ****        -9.7500  -1.2500  24.0000 Du        
   9145 ****        -9.7500  -1.2500  24.2500 Du        
   9146 ****        -9.7500  -1.2500  24.5000 Du        
   9147 ****        -9.7500  -1.2500  24.7500 Du        
   9148 ****        -9.7500  -1.2500  25.0000 Du        
   9149 ****        -9.7500  -1.2500  25.2500 Du        
   9150 ****        -9.7500  -1.0000  23.7500 Du        
   9151 ****        -9.7500  -1.0000  24.0000 Du        
   9152 ****        -9.7500  -1.0000  24.2500 Du        
   9153 ****        -9.7500  -1.0000  24.5000 Du        
   9154 ****        -9.7500  -1.0000  24.7500 Du        
   9155 ****        -9.7500  -1.0000  25.0000 Du        
   9156 ****        -9.5000 -11.2500  15.5000 Du        
   9157 ****        -9.5000 -11.2500  15.7500 Du        
   9158 ****        -9.5000 -11.2500  16.0000 Du        
   9159 ****        -9.5000 -11.2500  16.2500 Du        
   9160 ****        -9.5000 -11.2500  16.5000 Du        
   9161 ****        -9.5000 -11.2500  16.7500 Du        
   9162 ****        -9.5000 -11.0000  15.2500 Du        
   9163 ****        -9.5000 -11.0000  15.5000 Du        
   9164 ****        -9.5000 -11.0000  15.7500 Du        
   9165 ****        -9.5000 -11.0000  16.0000 Du        
   9166 ****        -9.5000 -11.0000  16.2500 Du        
   9167 ****        -9.5000 -11.0000  16.5000 Du        
   9168 ****        -9.5000 -11.0000  16.7500 Du        
   9169 ****        -9.5000 -11.0000  17.0000 Du        
   9170 ****        -9.5000 -11.0000  17.2500 Du        
   9171 ****        -9.5000 -10.7500  15.0000 Du        
   9172 ****        -9.5000 -10.7500  15.2500 Du        
   9173 ****        -9.5000 -10.7500  15.5000 Du        
   9174 ****        -9.5000 -10.7500  15.7500 Du        
   9175 ****        -9.5000 -10.7500  16.0000 Du        
   9176 ****        -9.5000 -10.7500  16.2500 Du        
   9177 ****        -9.5000 -10.7500  16.5000 Du        
   9178 ****        -9.5000 -10.7500  16.7500 Du        
   9179 ****        -9.5000 -10.7500  17.0000 Du        
   9180 ****        -9.5000 -10.7500  17.2500 Du        
   9181 ****        -9.5000 -10.5000  14.7500 Du        
   9182 ****        -9.5000 -10.5000  15.0000 Du        
   9183 ****        -9.5000 -10.5000  15.2500 Du        
   9184 ****        -9.5000 -10.5000  15.5000 Du        
   9185 ****        -9.5000 -10.5000  15.7500 Du        
   9186 ****        -9.5000 -10.5000  16.0000 Du        
   9187 ****        -9.5000 -10.5000  16.2500 Du        
   9188 ****        -9.5000 -10.5000  16.5000 Du        
   9189 ****        -9.5000 -10.5000  16.7500 Du        
   9190 ****        -9.5000 -10.5000  17.0000 Du        
   9191 ****        -9.5000 -10.5000  17.2500 Du        
   9192 ****        -9.5000 -10.2500  14.5000 Du        
   9193 ****        -9.5000 -10.2500  14.7500 Du        
   9194 ****        -9.5000 -10.2500  15.0000 Du        
   9195 ****        -9.5000 -10.2500  15.2500 Du        
   9196 ****        -9.5000 -10.2500  15.5000 Du        
   9197 ****        -9.5000 -10.2500  15.7500 Du        
   9198 ****        -9.5000 -10.2500  16.0000 Du        
   9199 ****        -9.5000 -10.2500  16.2500 Du        
   9200 ****        -9.5000 -10.2500  16.5000 Du        
   9201 ****        -9.5000 -10.2500  16.7500 Du        
   9202 ****        -9.5000 -10.2500  17.0000 Du        
   9203 ****        -9.5000 -10.2500  17.2500 Du        
   9204 ****        -9.5000 -10.0000  14.2500 Du        
   9205 ****        -9.5000 -10.0000  14.5000 Du        
   9206 ****        -9.5000 -10.0000  14.7500 Du        
   9207 ****        -9.5000 -10.0000  15.0000 Du        
   9208 ****        -9.5000 -10.0000  15.2500 Du        
   9209 ****        -9.5000 -10.0000  15.5000 Du        
   9210 ****        -9.5000 -10.0000  15.7500 Du        
   9211 ****        -9.5000 -10.0000  16.0000 Du        
   9212 ****        -9.5000 -10.0000  16.2500 Du        
   9213 ****        -9.5000 -10.0000  16.5000 Du        
   9214 ****        -9.5000 -10.0000  16.7500 Du        
   9215 ****        -9.5000 -10.0000  17.0000 Du        
   9216 ****        -9.5000 -10.0000  17.2500 Du        
   9217 ****        -9.5000  -9.7500  14.0000 Du        
   9218 ****        -9.5000  -9.7500  14.2500 Du        
   9219 ****        -9.5000  -9.7500  14.5000 Du        
   9220 ****        -9.5000  -9.7500  14.7500 Du        
   9221 ****        -9.5000  -9.7500  15.0000 Du        
   9222 ****        -9.5000  -9.7500  15.2500 Du        
   9223 ****        -9.5000  -9.7500  15.5000 Du        
   9224 ****        -9.5000  -9.7500  15.7500 Du        
   9225 ****        -9.5000  -9.7500  16.0000 Du        
   9226 ****        -9.5000  -9.7500  16.2500 Du        
   9227 ****        -9.5000  -9.7500  16.5000 Du        
   9228 ****        -9.5000  -9.7500  16.7500 Du        
   9229 ****        -9.5000  -9.7500  17.0000 Du        
   9230 ****        -9.5000  -9.7500  17.2500 Du        
   9231 ****        -9.5000  -9.7500  17.5000 Du        
   9232 ****        -9.5000  -9.5000  13.7500 Du        
   9233 ****        -9.5000  -9.5000  14.0000 Du        
   9234 ****        -9.5000  -9.5000  14.2500 Du        
   9235 ****        -9.5000  -9.5000  14.5000 Du        
   9236 ****        -9.5000  -9.5000  14.7500 Du        
   9237 ****        -9.5000  -9.5000  15.0000 Du        
   9238 ****        -9.5000  -9.5000  15.2500 Du        
   9239 ****        -9.5000  -9.5000  15.5000 Du        
   9240 ****        -9.5000  -9.5000  15.7500 Du        
   9241 ****        -9.5000  -9.5000  16.0000 Du        
   9242 ****        -9.5000  -9.5000  16.2500 Du        
   9243 ****        -9.5000  -9.5000  16.5000 Du        
   9244 ****        -9.5000  -9.5000  16.7500 Du        
   9245 ****        -9.5000  -9.5000  17.0000 Du        
   9246 ****        -9.5000  -9.5000  17.2500 Du        
   9247 ****        -9.5000  -9.5000  17.5000 Du        
   9248 ****        -9.5000  -9.2500  14.0000 Du        
   9249 ****        -9.5000  -9.2500  14.2500 Du        
   9250 ****        -9.5000  -9.2500  14.5000 Du        
   9251 ****        -9.5000  -9.2500  14.7500 Du        
   9252 ****        -9.5000  -9.2500  15.0000 Du        
   9253 ****        -9.5000  -9.2500  15.2500 Du        
   9254 ****        -9.5000  -9.2500  15.5000 Du        
   9255 ****        -9.5000  -9.2500  15.7500 Du        
   9256 ****        -9.5000  -9.2500  16.0000 Du        
   9257 ****        -9.5000  -9.2500  16.2500 Du        
   9258 ****        -9.5000  -9.2500  16.5000 Du        
   9259 ****        -9.5000  -9.2500  16.7500 Du        
   9260 ****        -9.5000  -9.2500  17.0000 Du        
   9261 ****        -9.5000  -9.2500  17.2500 Du        
   9262 ****        -9.5000  -9.2500  17.5000 Du        
   9263 ****        -9.5000  -9.2500  17.7500 Du        
   9264 ****        -9.5000  -9.2500  18.0000 Du        
   9265 ****        -9.5000  -9.0000  14.2500 Du        
   9266 ****        -9.5000  -9.0000  14.5000 Du        
   9267 ****        -9.5000  -9.0000  14.7500 Du        
   9268 ****        -9.5000  -9.0000  15.0000 Du        
   9269 ****        -9.5000  -9.0000  15.2500 Du        
   9270 ****        -9.5000  -9.0000  15.5000 Du        
   9271 ****        -9.5000  -9.0000  15.7500 Du        
   9272 ****        -9.5000  -9.0000  16.0000 Du        
   9273 ****        -9.5000  -9.0000  16.2500 Du        
   9274 ****        -9.5000  -9.0000  16.5000 Du        
   9275 ****        -9.5000  -9.0000  16.7500 Du        
   9276 ****        -9.5000  -9.0000  17.0000 Du        
   9277 ****        -9.5000  -9.0000  17.2500 Du        
   9278 ****        -9.5000  -9.0000  17.5000 Du        
   9279 ****        -9.5000  -9.0000  17.7500 Du        
   9280 ****        -9.5000  -9.0000  18.0000 Du        
   9281 ****        -9.5000  -9.0000  18.2500 Du        
   9282 ****        -9.5000  -9.0000  18.5000 Du        
   9283 ****        -9.5000  -9.0000  18.7500 Du        
   9284 ****        -9.5000  -9.0000  19.0000 Du        
   9285 ****        -9.5000  -9.0000  19.2500 Du        
   9286 ****        -9.5000  -8.7500  14.5000 Du        
   9287 ****        -9.5000  -8.7500  14.7500 Du        
   9288 ****        -9.5000  -8.7500  15.0000 Du        
   9289 ****        -9.5000  -8.7500  15.2500 Du        
   9290 ****        -9.5000  -8.7500  15.5000 Du        
   9291 ****        -9.5000  -8.7500  15.7500 Du        
   9292 ****        -9.5000  -8.7500  16.0000 Du        
   9293 ****        -9.5000  -8.7500  16.2500 Du        
   9294 ****        -9.5000  -8.7500  16.5000 Du        
   9295 ****        -9.5000  -8.7500  16.7500 Du        
   9296 ****        -9.5000  -8.7500  17.0000 Du        
   9297 ****        -9.5000  -8.7500  17.2500 Du        
   9298 ****        -9.5000  -8.7500  17.5000 Du        
   9299 ****        -9.5000  -8.7500  17.7500 Du        
   9300 ****        -9.5000  -8.7500  18.0000 Du        
   9301 ****        -9.5000  -8.7500  18.2500 Du        
   9302 ****        -9.5000  -8.7500  18.5000 Du        
   9303 ****        -9.5000  -8.7500  18.7500 Du        
   9304 ****        -9.5000  -8.7500  19.0000 Du        
   9305 ****        -9.5000  -8.7500  19.2500 Du        
   9306 ****        -9.5000  -8.7500  19.5000 Du        
   9307 ****        -9.5000  -8.5000  15.0000 Du        
   9308 ****        -9.5000  -8.5000  15.2500 Du        
   9309 ****        -9.5000  -8.5000  15.5000 Du        
   9310 ****        -9.5000  -8.5000  15.7500 Du        
   9311 ****        -9.5000  -8.5000  16.0000 Du        
   9312 ****        -9.5000  -8.5000  16.2500 Du        
   9313 ****        -9.5000  -8.5000  16.5000 Du        
   9314 ****        -9.5000  -8.5000  16.7500 Du        
   9315 ****        -9.5000  -8.5000  17.0000 Du        
   9316 ****        -9.5000  -8.5000  17.2500 Du        
   9317 ****        -9.5000  -8.5000  17.5000 Du        
   9318 ****        -9.5000  -8.5000  17.7500 Du        
   9319 ****        -9.5000  -8.5000  18.0000 Du        
   9320 ****        -9.5000  -8.5000  18.2500 Du        
   9321 ****        -9.5000  -8.5000  18.5000 Du        
   9322 ****        -9.5000  -8.5000  18.7500 Du        
   9323 ****        -9.5000  -8.5000  19.0000 Du        
   9324 ****        -9.5000  -8.5000  19.2500 Du        
   9325 ****        -9.5000  -8.5000  19.5000 Du        
   9326 ****        -9.5000  -8.2500  15.0000 Du        
   9327 ****        -9.5000  -8.2500  15.2500 Du        
   9328 ****        -9.5000  -8.2500  15.5000 Du        
   9329 ****        -9.5000  -8.2500  15.7500 Du        
   9330 ****        -9.5000  -8.2500  16.0000 Du        
   9331 ****        -9.5000  -8.2500  16.2500 Du        
   9332 ****        -9.5000  -8.2500  16.5000 Du        
   9333 ****        -9.5000  -8.2500  16.7500 Du        
   9334 ****        -9.5000  -8.2500  17.0000 Du        
   9335 ****        -9.5000  -8.2500  17.2500 Du        
   9336 ****        -9.5000  -8.2500  17.5000 Du        
   9337 ****        -9.5000  -8.2500  17.7500 Du        
   9338 ****        -9.5000  -8.2500  18.0000 Du        
   9339 ****        -9.5000  -8.2500  18.2500 Du        
   9340 ****        -9.5000  -8.2500  18.5000 Du        
   9341 ****        -9.5000  -8.2500  18.7500 Du        
   9342 ****        -9.5000  -8.2500  19.0000 Du        
   9343 ****        -9.5000  -8.2500  19.2500 Du        
   9344 ****        -9.5000  -8.2500  19.5000 Du        
   9345 ****        -9.5000  -8.0000  15.2500 Du        
   9346 ****        -9.5000  -8.0000  15.5000 Du        
   9347 ****        -9.5000  -8.0000  15.7500 Du        
   9348 ****        -9.5000  -8.0000  16.0000 Du        
   9349 ****        -9.5000  -8.0000  16.2500 Du        
   9350 ****        -9.5000  -8.0000  16.5000 Du        
   9351 ****        -9.5000  -8.0000  16.7500 Du        
   9352 ****        -9.5000  -8.0000  17.0000 Du        
   9353 ****        -9.5000  -8.0000  17.2500 Du        
   9354 ****        -9.5000  -8.0000  17.5000 Du        
   9355 ****        -9.5000  -8.0000  17.7500 Du        
   9356 ****        -9.5000  -8.0000  18.0000 Du        
   9357 ****        -9.5000  -8.0000  18.2500 Du        
   9358 ****        -9.5000  -8.0000  18.5000 Du        
   9359 ****        -9.5000  -8.0000  18.7500 Du        
   9360 ****        -9.5000  -8.0000  19.0000 Du        
   9361 ****        -9.5000  -8.0000  19.2500 Du        
   9362 ****        -9.5000  -8.0000  19.5000 Du        
   9363 ****        -9.5000  -7.7500  15.2500 Du        
   9364 ****        -9.5000  -7.7500  15.5000 Du        
   9365 ****        -9.5000  -7.7500  15.7500 Du        
   9366 ****        -9.5000  -7.7500  16.0000 Du        
   9367 ****        -9.5000  -7.7500  16.2500 Du        
   9368 ****        -9.5000  -7.7500  16.5000 Du        
   9369 ****        -9.5000  -7.7500  16.7500 Du        
   9370 ****        -9.5000  -7.7500  17.0000 Du        
   9371 ****        -9.5000  -7.7500  17.2500 Du        
   9372 ****        -9.5000  -7.7500  17.5000 Du        
   9373 ****        -9.5000  -7.7500  17.7500 Du        
   9374 ****        -9.5000  -7.7500  18.0000 Du        
   9375 ****        -9.5000  -7.7500  18.2500 Du        
   9376 ****        -9.5000  -7.7500  18.5000 Du        
   9377 ****        -9.5000  -7.7500  18.7500 Du        
   9378 ****        -9.5000  -7.7500  19.0000 Du        
   9379 ****        -9.5000  -7.7500  19.2500 Du        
   9380 ****        -9.5000  -7.5000  15.5000 Du        
   9381 ****        -9.5000  -7.5000  15.7500 Du        
   9382 ****        -9.5000  -7.5000  16.0000 Du        
   9383 ****        -9.5000  -7.5000  16.2500 Du        
   9384 ****        -9.5000  -7.5000  16.5000 Du        
   9385 ****        -9.5000  -7.5000  16.7500 Du        
   9386 ****        -9.5000  -7.5000  17.0000 Du        
   9387 ****        -9.5000  -7.5000  17.2500 Du        
   9388 ****        -9.5000  -7.5000  17.5000 Du        
   9389 ****        -9.5000  -7.5000  17.7500 Du        
   9390 ****        -9.5000  -7.5000  18.0000 Du        
   9391 ****        -9.5000  -7.5000  18.2500 Du        
   9392 ****        -9.5000  -7.5000  18.5000 Du        
   9393 ****        -9.5000  -7.5000  18.7500 Du        
   9394 ****        -9.5000  -7.5000  19.0000 Du        
   9395 ****        -9.5000  -7.5000  19.2500 Du        
   9396 ****        -9.5000  -7.2500  15.5000 Du        
   9397 ****        -9.5000  -7.2500  15.7500 Du        
   9398 ****        -9.5000  -7.2500  16.0000 Du        
   9399 ****        -9.5000  -7.2500  16.2500 Du        
   9400 ****        -9.5000  -7.2500  16.5000 Du        
   9401 ****        -9.5000  -7.2500  16.7500 Du        
   9402 ****        -9.5000  -7.2500  17.0000 Du        
   9403 ****        -9.5000  -7.2500  17.2500 Du        
   9404 ****        -9.5000  -7.2500  17.5000 Du        
   9405 ****        -9.5000  -7.2500  17.7500 Du        
   9406 ****        -9.5000  -7.2500  18.0000 Du        
   9407 ****        -9.5000  -7.2500  18.2500 Du        
   9408 ****        -9.5000  -7.2500  18.5000 Du        
   9409 ****        -9.5000  -7.2500  18.7500 Du        
   9410 ****        -9.5000  -7.2500  19.0000 Du        
   9411 ****        -9.5000  -7.2500  19.2500 Du        
   9412 ****        -9.5000  -7.0000  15.7500 Du        
   9413 ****        -9.5000  -7.0000  16.0000 Du        
   9414 ****        -9.5000  -7.0000  16.2500 Du        
   9415 ****        -9.5000  -7.0000  16.5000 Du        
   9416 ****        -9.5000  -7.0000  16.7500 Du        
   9417 ****        -9.5000  -7.0000  17.0000 Du        
   9418 ****        -9.5000  -7.0000  17.2500 Du        
   9419 ****        -9.5000  -7.0000  17.5000 Du        
   9420 ****        -9.5000  -7.0000  17.7500 Du        
   9421 ****        -9.5000  -7.0000  18.0000 Du        
   9422 ****        -9.5000  -7.0000  18.2500 Du        
   9423 ****        -9.5000  -7.0000  18.5000 Du        
   9424 ****        -9.5000  -7.0000  18.7500 Du        
   9425 ****        -9.5000  -7.0000  19.0000 Du        
   9426 ****        -9.5000  -7.0000  19.2500 Du        
   9427 ****        -9.5000  -6.7500  15.7500 Du        
   9428 ****        -9.5000  -6.7500  16.0000 Du        
   9429 ****        -9.5000  -6.7500  16.2500 Du        
   9430 ****        -9.5000  -6.7500  16.5000 Du        
   9431 ****        -9.5000  -6.7500  16.7500 Du        
   9432 ****        -9.5000  -6.7500  17.0000 Du        
   9433 ****        -9.5000  -6.7500  17.2500 Du        
   9434 ****        -9.5000  -6.7500  17.5000 Du        
   9435 ****        -9.5000  -6.7500  17.7500 Du        
   9436 ****        -9.5000  -6.7500  18.0000 Du        
   9437 ****        -9.5000  -6.7500  18.2500 Du        
   9438 ****        -9.5000  -6.7500  18.5000 Du        
   9439 ****        -9.5000  -6.7500  18.7500 Du        
   9440 ****        -9.5000  -6.7500  19.0000 Du        
   9441 ****        -9.5000  -6.7500  19.2500 Du        
   9442 ****        -9.5000  -6.5000  15.7500 Du        
   9443 ****        -9.5000  -6.5000  16.0000 Du        
   9444 ****        -9.5000  -6.5000  16.2500 Du        
   9445 ****        -9.5000  -6.5000  16.5000 Du        
   9446 ****        -9.5000  -6.5000  16.7500 Du        
   9447 ****        -9.5000  -6.5000  17.0000 Du        
   9448 ****        -9.5000  -6.5000  17.2500 Du        
   9449 ****        -9.5000  -6.5000  17.5000 Du        
   9450 ****        -9.5000  -6.5000  17.7500 Du        
   9451 ****        -9.5000  -6.5000  18.0000 Du        
   9452 ****        -9.5000  -6.5000  18.2500 Du        
   9453 ****        -9.5000  -6.5000  18.5000 Du        
   9454 ****        -9.5000  -6.5000  18.7500 Du        
   9455 ****        -9.5000  -6.5000  19.0000 Du        
   9456 ****        -9.5000  -6.2500  15.5000 Du        
   9457 ****        -9.5000  -6.2500  15.7500 Du        
   9458 ****        -9.5000  -6.2500  16.0000 Du        
   9459 ****        -9.5000  -6.2500  16.2500 Du        
   9460 ****        -9.5000  -6.2500  16.5000 Du        
   9461 ****        -9.5000  -6.2500  16.7500 Du        
   9462 ****        -9.5000  -6.2500  17.0000 Du        
   9463 ****        -9.5000  -6.2500  17.2500 Du        
   9464 ****        -9.5000  -6.2500  17.5000 Du        
   9465 ****        -9.5000  -6.2500  17.7500 Du        
   9466 ****        -9.5000  -6.2500  18.0000 Du        
   9467 ****        -9.5000  -6.2500  18.2500 Du        
   9468 ****        -9.5000  -6.2500  18.5000 Du        
   9469 ****        -9.5000  -6.2500  18.7500 Du        
   9470 ****        -9.5000  -6.2500  19.0000 Du        
   9471 ****        -9.5000  -6.0000  15.5000 Du        
   9472 ****        -9.5000  -6.0000  15.7500 Du        
   9473 ****        -9.5000  -6.0000  16.0000 Du        
   9474 ****        -9.5000  -6.0000  16.2500 Du        
   9475 ****        -9.5000  -6.0000  16.5000 Du        
   9476 ****        -9.5000  -6.0000  16.7500 Du        
   9477 ****        -9.5000  -6.0000  17.0000 Du        
   9478 ****        -9.5000  -6.0000  17.2500 Du        
   9479 ****        -9.5000  -6.0000  17.5000 Du        
   9480 ****        -9.5000  -6.0000  17.7500 Du        
   9481 ****        -9.5000  -6.0000  18.0000 Du        
   9482 ****        -9.5000  -6.0000  18.2500 Du        
   9483 ****        -9.5000  -6.0000  18.5000 Du        
   9484 ****        -9.5000  -6.0000  18.7500 Du        
   9485 ****        -9.5000  -6.0000  19.0000 Du        
   9486 ****        -9.5000  -5.7500  15.2500 Du        
   9487 ****        -9.5000  -5.7500  15.5000 Du        
   9488 ****        -9.5000  -5.7500  15.7500 Du        
   9489 ****        -9.5000  -5.7500  16.0000 Du        
   9490 ****        -9.5000  -5.7500  18.0000 Du        
   9491 ****        -9.5000  -5.7500  18.2500 Du        
   9492 ****        -9.5000  -5.7500  18.5000 Du        
   9493 ****        -9.5000  -5.7500  18.7500 Du        
   9494 ****        -9.5000  -3.0000  23.5000 Du        
   9495 ****        -9.5000  -3.0000  23.7500 Du        
   9496 ****        -9.5000  -3.0000  24.0000 Du        
   9497 ****        -9.5000  -3.0000  24.2500 Du        
   9498 ****        -9.5000  -2.7500  23.2500 Du        
   9499 ****        -9.5000  -2.7500  23.5000 Du        
   9500 ****        -9.5000  -2.7500  23.7500 Du        
   9501 ****        -9.5000  -2.7500  24.0000 Du        
   9502 ****        -9.5000  -2.7500  24.2500 Du        
   9503 ****        -9.5000  -2.7500  24.5000 Du        
   9504 ****        -9.5000  -2.7500  24.7500 Du        
   9505 ****        -9.5000  -2.5000  22.7500 Du        
   9506 ****        -9.5000  -2.5000  23.0000 Du        
   9507 ****        -9.5000  -2.5000  23.2500 Du        
   9508 ****        -9.5000  -2.5000  23.5000 Du        
   9509 ****        -9.5000  -2.5000  23.7500 Du        
   9510 ****        -9.5000  -2.5000  24.0000 Du        
   9511 ****        -9.5000  -2.5000  24.2500 Du        
   9512 ****        -9.5000  -2.5000  24.5000 Du        
   9513 ****        -9.5000  -2.5000  24.7500 Du        
   9514 ****        -9.5000  -2.5000  25.0000 Du        
   9515 ****        -9.5000  -2.2500  22.7500 Du        
   9516 ****        -9.5000  -2.2500  23.0000 Du        
   9517 ****        -9.5000  -2.2500  23.2500 Du        
   9518 ****        -9.5000  -2.2500  23.5000 Du        
   9519 ****        -9.5000  -2.2500  23.7500 Du        
   9520 ****        -9.5000  -2.2500  24.0000 Du        
   9521 ****        -9.5000  -2.2500  24.2500 Du        
   9522 ****        -9.5000  -2.2500  24.5000 Du        
   9523 ****        -9.5000  -2.2500  24.7500 Du        
   9524 ****        -9.5000  -2.2500  25.0000 Du        
   9525 ****        -9.5000  -2.2500  25.2500 Du        
   9526 ****        -9.5000  -2.2500  25.5000 Du        
   9527 ****        -9.5000  -2.2500  25.7500 Du        
   9528 ****        -9.5000  -2.2500  26.0000 Du        
   9529 ****        -9.5000  -2.0000  22.7500 Du        
   9530 ****        -9.5000  -2.0000  23.0000 Du        
   9531 ****        -9.5000  -2.0000  23.2500 Du        
   9532 ****        -9.5000  -2.0000  23.5000 Du        
   9533 ****        -9.5000  -2.0000  23.7500 Du        
   9534 ****        -9.5000  -2.0000  24.0000 Du        
   9535 ****        -9.5000  -2.0000  24.2500 Du        
   9536 ****        -9.5000  -2.0000  24.5000 Du        
   9537 ****        -9.5000  -2.0000  24.7500 Du        
   9538 ****        -9.5000  -2.0000  25.0000 Du        
   9539 ****        -9.5000  -2.0000  25.2500 Du        
   9540 ****        -9.5000  -2.0000  25.5000 Du        
   9541 ****        -9.5000  -2.0000  25.7500 Du        
   9542 ****        -9.5000  -2.0000  26.0000 Du        
   9543 ****        -9.5000  -2.0000  26.2500 Du        
   9544 ****        -9.5000  -2.0000  26.5000 Du        
   9545 ****        -9.5000  -2.0000  26.7500 Du        
   9546 ****        -9.5000  -2.0000  27.0000 Du        
   9547 ****        -9.5000  -2.0000  27.2500 Du        
   9548 ****        -9.5000  -1.7500  22.7500 Du        
   9549 ****        -9.5000  -1.7500  23.0000 Du        
   9550 ****        -9.5000  -1.7500  23.2500 Du        
   9551 ****        -9.5000  -1.7500  23.5000 Du        
   9552 ****        -9.5000  -1.7500  23.7500 Du        
   9553 ****        -9.5000  -1.7500  24.0000 Du        
   9554 ****        -9.5000  -1.7500  24.2500 Du        
   9555 ****        -9.5000  -1.7500  24.5000 Du        
   9556 ****        -9.5000  -1.7500  24.7500 Du        
   9557 ****        -9.5000  -1.7500  25.0000 Du        
   9558 ****        -9.5000  -1.7500  25.2500 Du        
   9559 ****        -9.5000  -1.7500  25.5000 Du        
   9560 ****        -9.5000  -1.7500  25.7500 Du        
   9561 ****        -9.5000  -1.7500  26.0000 Du        
   9562 ****        -9.5000  -1.7500  26.2500 Du        
   9563 ****        -9.5000  -1.7500  26.5000 Du        
   9564 ****        -9.5000  -1.7500  26.7500 Du        
   9565 ****        -9.5000  -1.7500  27.0000 Du        
   9566 ****        -9.5000  -1.7500  27.2500 Du        
   9567 ****        -9.5000  -1.5000  23.0000 Du        
   9568 ****        -9.5000  -1.5000  23.2500 Du        
   9569 ****        -9.5000  -1.5000  23.5000 Du        
   9570 ****        -9.5000  -1.5000  23.7500 Du        
   9571 ****        -9.5000  -1.5000  24.0000 Du        
   9572 ****        -9.5000  -1.5000  24.2500 Du        
   9573 ****        -9.5000  -1.5000  24.5000 Du        
   9574 ****        -9.5000  -1.5000  24.7500 Du        
   9575 ****        -9.5000  -1.5000  25.0000 Du        
   9576 ****        -9.5000  -1.5000  25.2500 Du        
   9577 ****        -9.5000  -1.5000  25.5000 Du        
   9578 ****        -9.5000  -1.5000  25.7500 Du        
   9579 ****        -9.5000  -1.5000  26.0000 Du        
   9580 ****        -9.5000  -1.5000  26.2500 Du        
   9581 ****        -9.5000  -1.5000  26.5000 Du        
   9582 ****        -9.5000  -1.2500  23.0000 Du        
   9583 ****        -9.5000  -1.2500  23.2500 Du        
   9584 ****        -9.5000  -1.2500  23.5000 Du        
   9585 ****        -9.5000  -1.2500  23.7500 Du        
   9586 ****        -9.5000  -1.2500  24.0000 Du        
   9587 ****        -9.5000  -1.2500  24.2500 Du        
   9588 ****        -9.5000  -1.2500  24.5000 Du        
   9589 ****        -9.5000  -1.2500  24.7500 Du        
   9590 ****        -9.5000  -1.2500  25.0000 Du        
   9591 ****        -9.5000  -1.2500  25.2500 Du        
   9592 ****        -9.5000  -1.2500  25.5000 Du        
   9593 ****        -9.5000  -1.2500  25.7500 Du        
   9594 ****        -9.5000  -1.2500  26.0000 Du        
   9595 ****        -9.5000  -1.0000  23.0000 Du        
   9596 ****        -9.5000  -1.0000  23.2500 Du        
   9597 ****        -9.5000  -1.0000  23.5000 Du        
   9598 ****        -9.5000  -1.0000  23.7500 Du        
   9599 ****        -9.5000  -1.0000  24.0000 Du        
   9600 ****        -9.5000  -1.0000  24.2500 Du        
   9601 ****        -9.5000  -1.0000  24.5000 Du        
   9602 ****        -9.5000  -1.0000  24.7500 Du        
   9603 ****        -9.5000  -1.0000  25.0000 Du        
   9604 ****        -9.5000  -1.0000  25.2500 Du        
   9605 ****        -9.5000  -1.0000  25.5000 Du        
   9606 ****        -9.5000  -1.0000  25.7500 Du        
   9607 ****        -9.5000  -0.7500  23.0000 Du        
   9608 ****        -9.5000  -0.7500  23.2500 Du        
   9609 ****        -9.5000  -0.7500  23.5000 Du        
   9610 ****        -9.5000  -0.7500  23.7500 Du        
   9611 ****        -9.5000  -0.7500  24.0000 Du        
   9612 ****        -9.5000  -0.7500  24.2500 Du        
   9613 ****        -9.5000  -0.7500  24.5000 Du        
   9614 ****        -9.5000  -0.7500  24.7500 Du        
   9615 ****        -9.5000  -0.7500  25.0000 Du        
   9616 ****        -9.5000  -0.5000  23.7500 Du        
   9617 ****        -9.5000  -0.5000  24.0000 Du        
   9618 ****        -9.5000  -0.5000  24.5000 Du        
   9619 ****        -9.5000   3.2500  25.5000 Du        
   9620 ****        -9.5000   3.2500  25.7500 Du        
   9621 ****        -9.5000   3.2500  26.0000 Du        
   9622 ****        -9.5000   3.5000  25.7500 Du        
   9623 ****        -9.5000   3.5000  26.0000 Du        
   9624 ****        -9.5000   3.7500  25.7500 Du        
   9625 ****        -9.5000   3.7500  26.0000 Du        
   9626 ****        -9.2500 -14.0000  17.5000 Du        
   9627 ****        -9.2500 -14.0000  17.7500 Du        
   9628 ****        -9.2500 -14.0000  18.0000 Du        
   9629 ****        -9.2500 -14.0000  18.2500 Du        
   9630 ****        -9.2500 -14.0000  18.5000 Du        
   9631 ****        -9.2500 -14.0000  18.7500 Du        
   9632 ****        -9.2500 -13.7500  17.7500 Du        
   9633 ****        -9.2500 -13.7500  18.0000 Du        
   9634 ****        -9.2500 -13.7500  18.2500 Du        
   9635 ****        -9.2500 -13.7500  18.5000 Du        
   9636 ****        -9.2500 -13.7500  18.7500 Du        
   9637 ****        -9.2500 -13.7500  19.0000 Du        
   9638 ****        -9.2500 -13.5000  18.0000 Du        
   9639 ****        -9.2500 -13.5000  18.2500 Du        
   9640 ****        -9.2500 -13.5000  18.5000 Du        
   9641 ****        -9.2500 -13.5000  18.7500 Du        
   9642 ****        -9.2500 -13.5000  19.0000 Du        
   9643 ****        -9.2500 -13.2500  18.2500 Du        
   9644 ****        -9.2500 -13.2500  18.5000 Du        
   9645 ****        -9.2500 -13.2500  18.7500 Du        
   9646 ****        -9.2500 -13.2500  19.0000 Du        
   9647 ****        -9.2500 -13.0000  18.2500 Du        
   9648 ****        -9.2500 -13.0000  18.5000 Du        
   9649 ****        -9.2500 -13.0000  18.7500 Du        
   9650 ****        -9.2500 -12.7500  18.2500 Du        
   9651 ****        -9.2500 -12.7500  18.5000 Du        
   9652 ****        -9.2500 -12.2500  15.2500 Du        
   9653 ****        -9.2500 -12.2500  15.5000 Du        
   9654 ****        -9.2500 -12.2500  15.7500 Du        
   9655 ****        -9.2500 -12.2500  18.2500 Du        
   9656 ****        -9.2500 -12.0000  15.2500 Du        
   9657 ****        -9.2500 -12.0000  15.5000 Du        
   9658 ****        -9.2500 -12.0000  15.7500 Du        
   9659 ****        -9.2500 -12.0000  16.0000 Du        
   9660 ****        -9.2500 -12.0000  18.0000 Du        
   9661 ****        -9.2500 -12.0000  18.2500 Du        
   9662 ****        -9.2500 -11.7500  15.2500 Du        
   9663 ****        -9.2500 -11.7500  15.5000 Du        
   9664 ****        -9.2500 -11.7500  15.7500 Du        
   9665 ****        -9.2500 -11.7500  16.0000 Du        
   9666 ****        -9.2500 -11.7500  16.2500 Du        
   9667 ****        -9.2500 -11.7500  16.5000 Du        
   9668 ****        -9.2500 -11.7500  17.5000 Du        
   9669 ****        -9.2500 -11.7500  17.7500 Du        
   9670 ****        -9.2500 -11.7500  18.0000 Du        
   9671 ****        -9.2500 -11.7500  18.2500 Du        
   9672 ****        -9.2500 -11.5000  15.2500 Du        
   9673 ****        -9.2500 -11.5000  15.5000 Du        
   9674 ****        -9.2500 -11.5000  15.7500 Du        
   9675 ****        -9.2500 -11.5000  16.0000 Du        
   9676 ****        -9.2500 -11.5000  16.2500 Du        
   9677 ****        -9.2500 -11.5000  16.5000 Du        
   9678 ****        -9.2500 -11.5000  16.7500 Du        
   9679 ****        -9.2500 -11.5000  17.0000 Du        
   9680 ****        -9.2500 -11.5000  17.2500 Du        
   9681 ****        -9.2500 -11.5000  17.5000 Du        
   9682 ****        -9.2500 -11.5000  17.7500 Du        
   9683 ****        -9.2500 -11.5000  18.0000 Du        
   9684 ****        -9.2500 -11.2500  15.0000 Du        
   9685 ****        -9.2500 -11.2500  15.2500 Du        
   9686 ****        -9.2500 -11.2500  15.5000 Du        
   9687 ****        -9.2500 -11.2500  15.7500 Du        
   9688 ****        -9.2500 -11.2500  16.0000 Du        
   9689 ****        -9.2500 -11.2500  16.2500 Du        
   9690 ****        -9.2500 -11.2500  16.5000 Du        
   9691 ****        -9.2500 -11.2500  16.7500 Du        
   9692 ****        -9.2500 -11.2500  17.0000 Du        
   9693 ****        -9.2500 -11.2500  17.2500 Du        
   9694 ****        -9.2500 -11.2500  17.5000 Du        
   9695 ****        -9.2500 -11.2500  17.7500 Du        
   9696 ****        -9.2500 -11.2500  18.0000 Du        
   9697 ****        -9.2500 -11.2500  23.7500 Du        
   9698 ****        -9.2500 -11.0000  15.0000 Du        
   9699 ****        -9.2500 -11.0000  15.2500 Du        
   9700 ****        -9.2500 -11.0000  15.5000 Du        
   9701 ****        -9.2500 -11.0000  15.7500 Du        
   9702 ****        -9.2500 -11.0000  16.0000 Du        
   9703 ****        -9.2500 -11.0000  16.2500 Du        
   9704 ****        -9.2500 -11.0000  16.5000 Du        
   9705 ****        -9.2500 -11.0000  16.7500 Du        
   9706 ****        -9.2500 -11.0000  17.0000 Du        
   9707 ****        -9.2500 -11.0000  17.2500 Du        
   9708 ****        -9.2500 -11.0000  17.5000 Du        
   9709 ****        -9.2500 -11.0000  17.7500 Du        
   9710 ****        -9.2500 -11.0000  18.0000 Du        
   9711 ****        -9.2500 -11.0000  23.7500 Du        
   9712 ****        -9.2500 -10.7500  14.7500 Du        
   9713 ****        -9.2500 -10.7500  15.0000 Du        
   9714 ****        -9.2500 -10.7500  15.2500 Du        
   9715 ****        -9.2500 -10.7500  15.5000 Du        
   9716 ****        -9.2500 -10.7500  15.7500 Du        
   9717 ****        -9.2500 -10.7500  16.0000 Du        
   9718 ****        -9.2500 -10.7500  16.2500 Du        
   9719 ****        -9.2500 -10.7500  16.5000 Du        
   9720 ****        -9.2500 -10.7500  16.7500 Du        
   9721 ****        -9.2500 -10.7500  17.0000 Du        
   9722 ****        -9.2500 -10.7500  17.2500 Du        
   9723 ****        -9.2500 -10.7500  17.5000 Du        
   9724 ****        -9.2500 -10.7500  17.7500 Du        
   9725 ****        -9.2500 -10.7500  18.0000 Du        
   9726 ****        -9.2500 -10.5000  14.7500 Du        
   9727 ****        -9.2500 -10.5000  15.0000 Du        
   9728 ****        -9.2500 -10.5000  15.2500 Du        
   9729 ****        -9.2500 -10.5000  15.5000 Du        
   9730 ****        -9.2500 -10.5000  15.7500 Du        
   9731 ****        -9.2500 -10.5000  16.0000 Du        
   9732 ****        -9.2500 -10.5000  16.2500 Du        
   9733 ****        -9.2500 -10.5000  16.5000 Du        
   9734 ****        -9.2500 -10.5000  16.7500 Du        
   9735 ****        -9.2500 -10.5000  17.0000 Du        
   9736 ****        -9.2500 -10.5000  17.2500 Du        
   9737 ****        -9.2500 -10.5000  17.5000 Du        
   9738 ****        -9.2500 -10.5000  17.7500 Du        
   9739 ****        -9.2500 -10.2500  14.5000 Du        
   9740 ****        -9.2500 -10.2500  14.7500 Du        
   9741 ****        -9.2500 -10.2500  15.0000 Du        
   9742 ****        -9.2500 -10.2500  15.2500 Du        
   9743 ****        -9.2500 -10.2500  15.5000 Du        
   9744 ****        -9.2500 -10.2500  15.7500 Du        
   9745 ****        -9.2500 -10.2500  16.0000 Du        
   9746 ****        -9.2500 -10.2500  16.2500 Du        
   9747 ****        -9.2500 -10.2500  16.5000 Du        
   9748 ****        -9.2500 -10.2500  16.7500 Du        
   9749 ****        -9.2500 -10.2500  17.0000 Du        
   9750 ****        -9.2500 -10.2500  17.2500 Du        
   9751 ****        -9.2500 -10.2500  17.5000 Du        
   9752 ****        -9.2500 -10.2500  17.7500 Du        
   9753 ****        -9.2500 -10.0000  14.2500 Du        
   9754 ****        -9.2500 -10.0000  14.5000 Du        
   9755 ****        -9.2500 -10.0000  14.7500 Du        
   9756 ****        -9.2500 -10.0000  15.0000 Du        
   9757 ****        -9.2500 -10.0000  15.2500 Du        
   9758 ****        -9.2500 -10.0000  15.5000 Du        
   9759 ****        -9.2500 -10.0000  15.7500 Du        
   9760 ****        -9.2500 -10.0000  16.0000 Du        
   9761 ****        -9.2500 -10.0000  16.2500 Du        
   9762 ****        -9.2500 -10.0000  16.5000 Du        
   9763 ****        -9.2500 -10.0000  16.7500 Du        
   9764 ****        -9.2500 -10.0000  17.0000 Du        
   9765 ****        -9.2500 -10.0000  17.2500 Du        
   9766 ****        -9.2500 -10.0000  17.5000 Du        
   9767 ****        -9.2500 -10.0000  17.7500 Du        
   9768 ****        -9.2500 -10.0000  18.0000 Du        
   9769 ****        -9.2500  -9.7500  13.7500 Du        
   9770 ****        -9.2500  -9.7500  14.0000 Du        
   9771 ****        -9.2500  -9.7500  14.2500 Du        
   9772 ****        -9.2500  -9.7500  14.5000 Du        
   9773 ****        -9.2500  -9.7500  14.7500 Du        
   9774 ****        -9.2500  -9.7500  15.0000 Du        
   9775 ****        -9.2500  -9.7500  15.2500 Du        
   9776 ****        -9.2500  -9.7500  15.5000 Du        
   9777 ****        -9.2500  -9.7500  15.7500 Du        
   9778 ****        -9.2500  -9.7500  16.0000 Du        
   9779 ****        -9.2500  -9.7500  16.2500 Du        
   9780 ****        -9.2500  -9.7500  16.5000 Du        
   9781 ****        -9.2500  -9.7500  16.7500 Du        
   9782 ****        -9.2500  -9.7500  17.0000 Du        
   9783 ****        -9.2500  -9.7500  17.2500 Du        
   9784 ****        -9.2500  -9.7500  17.5000 Du        
   9785 ****        -9.2500  -9.7500  17.7500 Du        
   9786 ****        -9.2500  -9.7500  18.0000 Du        
   9787 ****        -9.2500  -9.7500  18.5000 Du        
   9788 ****        -9.2500  -9.7500  18.7500 Du        
   9789 ****        -9.2500  -9.5000  13.7500 Du        
   9790 ****        -9.2500  -9.5000  14.0000 Du        
   9791 ****        -9.2500  -9.5000  14.2500 Du        
   9792 ****        -9.2500  -9.5000  14.5000 Du        
   9793 ****        -9.2500  -9.5000  14.7500 Du        
   9794 ****        -9.2500  -9.5000  15.0000 Du        
   9795 ****        -9.2500  -9.5000  15.2500 Du        
   9796 ****        -9.2500  -9.5000  15.5000 Du        
   9797 ****        -9.2500  -9.5000  15.7500 Du        
   9798 ****        -9.2500  -9.5000  16.0000 Du        
   9799 ****        -9.2500  -9.5000  16.2500 Du        
   9800 ****        -9.2500  -9.5000  16.5000 Du        
   9801 ****        -9.2500  -9.5000  16.7500 Du        
   9802 ****        -9.2500  -9.5000  17.0000 Du        
   9803 ****        -9.2500  -9.5000  17.2500 Du        
   9804 ****        -9.2500  -9.5000  17.5000 Du        
   9805 ****        -9.2500  -9.5000  17.7500 Du        
   9806 ****        -9.2500  -9.5000  18.0000 Du        
   9807 ****        -9.2500  -9.5000  18.2500 Du        
   9808 ****        -9.2500  -9.5000  18.5000 Du        
   9809 ****        -9.2500  -9.5000  18.7500 Du        
   9810 ****        -9.2500  -9.5000  19.0000 Du        
   9811 ****        -9.2500  -9.5000  19.2500 Du        
   9812 ****        -9.2500  -9.5000  19.5000 Du        
   9813 ****        -9.2500  -9.5000  19.7500 Du        
   9814 ****        -9.2500  -9.5000  20.0000 Du        
   9815 ****        -9.2500  -9.5000  20.2500 Du        
   9816 ****        -9.2500  -9.2500  13.7500 Du        
   9817 ****        -9.2500  -9.2500  14.0000 Du        
   9818 ****        -9.2500  -9.2500  14.2500 Du        
   9819 ****        -9.2500  -9.2500  14.5000 Du        
   9820 ****        -9.2500  -9.2500  14.7500 Du        
   9821 ****        -9.2500  -9.2500  15.0000 Du        
   9822 ****        -9.2500  -9.2500  15.2500 Du        
   9823 ****        -9.2500  -9.2500  15.5000 Du        
   9824 ****        -9.2500  -9.2500  15.7500 Du        
   9825 ****        -9.2500  -9.2500  16.0000 Du        
   9826 ****        -9.2500  -9.2500  16.2500 Du        
   9827 ****        -9.2500  -9.2500  16.5000 Du        
   9828 ****        -9.2500  -9.2500  16.7500 Du        
   9829 ****        -9.2500  -9.2500  17.0000 Du        
   9830 ****        -9.2500  -9.2500  17.2500 Du        
   9831 ****        -9.2500  -9.2500  17.5000 Du        
   9832 ****        -9.2500  -9.2500  17.7500 Du        
   9833 ****        -9.2500  -9.2500  18.0000 Du        
   9834 ****        -9.2500  -9.2500  18.2500 Du        
   9835 ****        -9.2500  -9.2500  18.5000 Du        
   9836 ****        -9.2500  -9.2500  18.7500 Du        
   9837 ****        -9.2500  -9.2500  19.0000 Du        
   9838 ****        -9.2500  -9.2500  19.2500 Du        
   9839 ****        -9.2500  -9.2500  19.5000 Du        
   9840 ****        -9.2500  -9.2500  19.7500 Du        
   9841 ****        -9.2500  -9.2500  20.0000 Du        
   9842 ****        -9.2500  -9.2500  20.2500 Du        
   9843 ****        -9.2500  -9.2500  20.5000 Du        
   9844 ****        -9.2500  -9.0000  14.0000 Du        
   9845 ****        -9.2500  -9.0000  14.2500 Du        
   9846 ****        -9.2500  -9.0000  14.5000 Du        
   9847 ****        -9.2500  -9.0000  14.7500 Du        
   9848 ****        -9.2500  -9.0000  15.0000 Du        
   9849 ****        -9.2500  -9.0000  15.2500 Du        
   9850 ****        -9.2500  -9.0000  15.5000 Du        
   9851 ****        -9.2500  -9.0000  15.7500 Du        
   9852 ****        -9.2500  -9.0000  16.0000 Du        
   9853 ****        -9.2500  -9.0000  16.2500 Du        
   9854 ****        -9.2500  -9.0000  16.5000 Du        
   9855 ****        -9.2500  -9.0000  16.7500 Du        
   9856 ****        -9.2500  -9.0000  17.0000 Du        
   9857 ****        -9.2500  -9.0000  17.2500 Du        
   9858 ****        -9.2500  -9.0000  17.5000 Du        
   9859 ****        -9.2500  -9.0000  17.7500 Du        
   9860 ****        -9.2500  -9.0000  18.0000 Du        
   9861 ****        -9.2500  -9.0000  18.2500 Du        
   9862 ****        -9.2500  -9.0000  18.5000 Du        
   9863 ****        -9.2500  -9.0000  18.7500 Du        
   9864 ****        -9.2500  -9.0000  19.0000 Du        
   9865 ****        -9.2500  -9.0000  19.2500 Du        
   9866 ****        -9.2500  -9.0000  19.5000 Du        
   9867 ****        -9.2500  -9.0000  19.7500 Du        
   9868 ****        -9.2500  -9.0000  20.0000 Du        
   9869 ****        -9.2500  -9.0000  20.2500 Du        
   9870 ****        -9.2500  -8.7500  14.5000 Du        
   9871 ****        -9.2500  -8.7500  14.7500 Du        
   9872 ****        -9.2500  -8.7500  15.0000 Du        
   9873 ****        -9.2500  -8.7500  15.2500 Du        
   9874 ****        -9.2500  -8.7500  15.5000 Du        
   9875 ****        -9.2500  -8.7500  15.7500 Du        
   9876 ****        -9.2500  -8.7500  16.0000 Du        
   9877 ****        -9.2500  -8.7500  16.2500 Du        
   9878 ****        -9.2500  -8.7500  16.5000 Du        
   9879 ****        -9.2500  -8.7500  16.7500 Du        
   9880 ****        -9.2500  -8.7500  17.0000 Du        
   9881 ****        -9.2500  -8.7500  17.2500 Du        
   9882 ****        -9.2500  -8.7500  17.5000 Du        
   9883 ****        -9.2500  -8.7500  17.7500 Du        
   9884 ****        -9.2500  -8.7500  18.0000 Du        
   9885 ****        -9.2500  -8.7500  18.2500 Du        
   9886 ****        -9.2500  -8.7500  18.5000 Du        
   9887 ****        -9.2500  -8.7500  18.7500 Du        
   9888 ****        -9.2500  -8.7500  19.0000 Du        
   9889 ****        -9.2500  -8.7500  19.2500 Du        
   9890 ****        -9.2500  -8.7500  19.5000 Du        
   9891 ****        -9.2500  -8.7500  19.7500 Du        
   9892 ****        -9.2500  -8.7500  20.0000 Du        
   9893 ****        -9.2500  -8.7500  20.2500 Du        
   9894 ****        -9.2500  -8.5000  15.0000 Du        
   9895 ****        -9.2500  -8.5000  15.2500 Du        
   9896 ****        -9.2500  -8.5000  15.5000 Du        
   9897 ****        -9.2500  -8.5000  15.7500 Du        
   9898 ****        -9.2500  -8.5000  16.0000 Du        
   9899 ****        -9.2500  -8.5000  16.2500 Du        
   9900 ****        -9.2500  -8.5000  16.5000 Du        
   9901 ****        -9.2500  -8.5000  16.7500 Du        
   9902 ****        -9.2500  -8.5000  17.0000 Du        
   9903 ****        -9.2500  -8.5000  17.2500 Du        
   9904 ****        -9.2500  -8.5000  17.5000 Du        
   9905 ****        -9.2500  -8.5000  17.7500 Du        
   9906 ****        -9.2500  -8.5000  18.0000 Du        
   9907 ****        -9.2500  -8.5000  18.2500 Du        
   9908 ****        -9.2500  -8.5000  18.5000 Du        
   9909 ****        -9.2500  -8.5000  18.7500 Du        
   9910 ****        -9.2500  -8.5000  19.0000 Du        
   9911 ****        -9.2500  -8.5000  19.2500 Du        
   9912 ****        -9.2500  -8.5000  19.5000 Du        
   9913 ****        -9.2500  -8.5000  19.7500 Du        
   9914 ****        -9.2500  -8.5000  20.0000 Du        
   9915 ****        -9.2500  -8.2500  15.0000 Du        
   9916 ****        -9.2500  -8.2500  15.2500 Du        
   9917 ****        -9.2500  -8.2500  15.5000 Du        
   9918 ****        -9.2500  -8.2500  15.7500 Du        
   9919 ****        -9.2500  -8.2500  16.0000 Du        
   9920 ****        -9.2500  -8.2500  16.2500 Du        
   9921 ****        -9.2500  -8.2500  16.5000 Du        
   9922 ****        -9.2500  -8.2500  16.7500 Du        
   9923 ****        -9.2500  -8.2500  17.0000 Du        
   9924 ****        -9.2500  -8.2500  17.2500 Du        
   9925 ****        -9.2500  -8.2500  17.5000 Du        
   9926 ****        -9.2500  -8.2500  17.7500 Du        
   9927 ****        -9.2500  -8.2500  18.0000 Du        
   9928 ****        -9.2500  -8.2500  18.2500 Du        
   9929 ****        -9.2500  -8.2500  18.5000 Du        
   9930 ****        -9.2500  -8.2500  18.7500 Du        
   9931 ****        -9.2500  -8.2500  19.0000 Du        
   9932 ****        -9.2500  -8.2500  19.2500 Du        
   9933 ****        -9.2500  -8.2500  19.5000 Du        
   9934 ****        -9.2500  -8.2500  19.7500 Du        
   9935 ****        -9.2500  -8.2500  20.0000 Du        
   9936 ****        -9.2500  -8.0000  15.2500 Du        
   9937 ****        -9.2500  -8.0000  15.5000 Du        
   9938 ****        -9.2500  -8.0000  15.7500 Du        
   9939 ****        -9.2500  -8.0000  16.0000 Du        
   9940 ****        -9.2500  -8.0000  16.2500 Du        
   9941 ****        -9.2500  -8.0000  16.5000 Du        
   9942 ****        -9.2500  -8.0000  16.7500 Du        
   9943 ****        -9.2500  -8.0000  17.0000 Du        
   9944 ****        -9.2500  -8.0000  17.2500 Du        
   9945 ****        -9.2500  -8.0000  17.5000 Du        
   9946 ****        -9.2500  -8.0000  17.7500 Du        
   9947 ****        -9.2500  -8.0000  18.0000 Du        
   9948 ****        -9.2500  -8.0000  18.2500 Du        
   9949 ****        -9.2500  -8.0000  18.5000 Du        
   9950 ****        -9.2500  -8.0000  18.7500 Du        
   9951 ****        -9.2500  -8.0000  19.0000 Du        
   9952 ****        -9.2500  -8.0000  19.2500 Du        
   9953 ****        -9.2500  -8.0000  19.5000 Du        
   9954 ****        -9.2500  -8.0000  19.7500 Du        
   9955 ****        -9.2500  -7.7500  15.5000 Du        
   9956 ****        -9.2500  -7.7500  15.7500 Du        
   9957 ****        -9.2500  -7.7500  16.0000 Du        
   9958 ****        -9.2500  -7.7500  16.2500 Du        
   9959 ****        -9.2500  -7.7500  16.5000 Du        
   9960 ****        -9.2500  -7.7500  16.7500 Du        
   9961 ****        -9.2500  -7.7500  17.0000 Du        
   9962 ****        -9.2500  -7.7500  17.2500 Du        
   9963 ****        -9.2500  -7.7500  17.5000 Du        
   9964 ****        -9.2500  -7.7500  17.7500 Du        
   9965 ****        -9.2500  -7.7500  18.0000 Du        
   9966 ****        -9.2500  -7.7500  18.2500 Du        
   9967 ****        -9.2500  -7.7500  18.5000 Du        
   9968 ****        -9.2500  -7.7500  18.7500 Du        
   9969 ****        -9.2500  -7.7500  19.0000 Du        
   9970 ****        -9.2500  -7.7500  19.2500 Du        
   9971 ****        -9.2500  -7.7500  19.5000 Du        
   9972 ****        -9.2500  -7.7500  19.7500 Du        
   9973 ****        -9.2500  -7.5000  15.7500 Du        
   9974 ****        -9.2500  -7.5000  16.0000 Du        
   9975 ****        -9.2500  -7.5000  16.2500 Du        
   9976 ****        -9.2500  -7.5000  16.5000 Du        
   9977 ****        -9.2500  -7.5000  16.7500 Du        
   9978 ****        -9.2500  -7.5000  17.0000 Du        
   9979 ****        -9.2500  -7.5000  17.2500 Du        
   9980 ****        -9.2500  -7.5000  17.5000 Du        
   9981 ****        -9.2500  -7.5000  17.7500 Du        
   9982 ****        -9.2500  -7.5000  18.0000 Du        
   9983 ****        -9.2500  -7.5000  18.2500 Du        
   9984 ****        -9.2500  -7.5000  18.5000 Du        
   9985 ****        -9.2500  -7.5000  18.7500 Du        
   9986 ****        -9.2500  -7.5000  19.0000 Du        
   9987 ****        -9.2500  -7.5000  19.2500 Du        
   9988 ****        -9.2500  -7.5000  19.5000 Du        
   9989 ****        -9.2500  -7.2500  15.7500 Du        
   9990 ****        -9.2500  -7.2500  16.0000 Du        
   9991 ****        -9.2500  -7.2500  16.2500 Du        
   9992 ****        -9.2500  -7.2500  16.5000 Du        
   9993 ****        -9.2500  -7.2500  16.7500 Du        
   9994 ****        -9.2500  -7.2500  17.0000 Du        
   9995 ****        -9.2500  -7.2500  17.2500 Du        
   9996 ****        -9.2500  -7.2500  17.5000 Du        
   9997 ****        -9.2500  -7.2500  17.7500 Du        
   9998 ****        -9.2500  -7.2500  18.0000 Du        
   9999 ****        -9.2500  -7.2500  18.2500 Du        
  10000 ****        -9.2500  -7.2500  18.5000 Du        
  10001 ****        -9.2500  -7.2500  18.7500 Du        
  10002 ****        -9.2500  -7.2500  19.0000 Du        
  10003 ****        -9.2500  -7.2500  19.2500 Du        
  10004 ****        -9.2500  -7.2500  19.5000 Du        
  10005 ****        -9.2500  -7.0000  15.7500 Du        
  10006 ****        -9.2500  -7.0000  16.0000 Du        
  10007 ****        -9.2500  -7.0000  16.2500 Du        
  10008 ****        -9.2500  -7.0000  16.5000 Du        
  10009 ****        -9.2500  -7.0000  16.7500 Du        
  10010 ****        -9.2500  -7.0000  17.0000 Du        
  10011 ****        -9.2500  -7.0000  17.2500 Du        
  10012 ****        -9.2500  -7.0000  17.5000 Du        
  10013 ****        -9.2500  -7.0000  17.7500 Du        
  10014 ****        -9.2500  -7.0000  18.0000 Du        
  10015 ****        -9.2500  -7.0000  18.2500 Du        
  10016 ****        -9.2500  -7.0000  18.5000 Du        
  10017 ****        -9.2500  -7.0000  18.7500 Du        
  10018 ****        -9.2500  -7.0000  19.0000 Du        
  10019 ****        -9.2500  -7.0000  19.2500 Du        
  10020 ****        -9.2500  -7.0000  19.5000 Du        
  10021 ****        -9.2500  -6.7500  15.7500 Du        
  10022 ****        -9.2500  -6.7500  16.0000 Du        
  10023 ****        -9.2500  -6.7500  16.2500 Du        
  10024 ****        -9.2500  -6.7500  16.5000 Du        
  10025 ****        -9.2500  -6.7500  16.7500 Du        
  10026 ****        -9.2500  -6.7500  17.0000 Du        
  10027 ****        -9.2500  -6.7500  17.2500 Du        
  10028 ****        -9.2500  -6.7500  17.5000 Du        
  10029 ****        -9.2500  -6.7500  17.7500 Du        
  10030 ****        -9.2500  -6.7500  18.0000 Du        
  10031 ****        -9.2500  -6.7500  18.2500 Du        
  10032 ****        -9.2500  -6.7500  18.5000 Du        
  10033 ****        -9.2500  -6.7500  18.7500 Du        
  10034 ****        -9.2500  -6.7500  19.0000 Du        
  10035 ****        -9.2500  -6.7500  19.2500 Du        
  10036 ****        -9.2500  -6.7500  19.5000 Du        
  10037 ****        -9.2500  -6.5000  15.7500 Du        
  10038 ****        -9.2500  -6.5000  16.0000 Du        
  10039 ****        -9.2500  -6.5000  16.2500 Du        
  10040 ****        -9.2500  -6.5000  16.5000 Du        
  10041 ****        -9.2500  -6.5000  16.7500 Du        
  10042 ****        -9.2500  -6.5000  17.0000 Du        
  10043 ****        -9.2500  -6.5000  17.2500 Du        
  10044 ****        -9.2500  -6.5000  17.5000 Du        
  10045 ****        -9.2500  -6.5000  17.7500 Du        
  10046 ****        -9.2500  -6.5000  18.0000 Du        
  10047 ****        -9.2500  -6.5000  18.2500 Du        
  10048 ****        -9.2500  -6.5000  18.5000 Du        
  10049 ****        -9.2500  -6.5000  18.7500 Du        
  10050 ****        -9.2500  -6.5000  19.0000 Du        
  10051 ****        -9.2500  -6.5000  19.2500 Du        
  10052 ****        -9.2500  -6.2500  15.7500 Du        
  10053 ****        -9.2500  -6.2500  16.0000 Du        
  10054 ****        -9.2500  -6.2500  16.2500 Du        
  10055 ****        -9.2500  -6.2500  16.5000 Du        
  10056 ****        -9.2500  -6.2500  16.7500 Du        
  10057 ****        -9.2500  -6.2500  17.0000 Du        
  10058 ****        -9.2500  -6.2500  17.2500 Du        
  10059 ****        -9.2500  -6.2500  17.5000 Du        
  10060 ****        -9.2500  -6.2500  17.7500 Du        
  10061 ****        -9.2500  -6.2500  18.0000 Du        
  10062 ****        -9.2500  -6.2500  18.2500 Du        
  10063 ****        -9.2500  -6.2500  18.5000 Du        
  10064 ****        -9.2500  -6.2500  18.7500 Du        
  10065 ****        -9.2500  -6.2500  19.0000 Du        
  10066 ****        -9.2500  -6.2500  19.2500 Du        
  10067 ****        -9.2500  -6.0000  15.7500 Du        
  10068 ****        -9.2500  -6.0000  16.0000 Du        
  10069 ****        -9.2500  -6.0000  16.2500 Du        
  10070 ****        -9.2500  -6.0000  16.5000 Du        
  10071 ****        -9.2500  -6.0000  16.7500 Du        
  10072 ****        -9.2500  -6.0000  17.0000 Du        
  10073 ****        -9.2500  -6.0000  17.2500 Du        
  10074 ****        -9.2500  -6.0000  17.5000 Du        
  10075 ****        -9.2500  -6.0000  17.7500 Du        
  10076 ****        -9.2500  -6.0000  18.0000 Du        
  10077 ****        -9.2500  -6.0000  18.2500 Du        
  10078 ****        -9.2500  -6.0000  18.5000 Du        
  10079 ****        -9.2500  -6.0000  18.7500 Du        
  10080 ****        -9.2500  -6.0000  19.0000 Du        
  10081 ****        -9.2500  -6.0000  19.2500 Du        
  10082 ****        -9.2500  -5.7500  16.0000 Du        
  10083 ****        -9.2500  -5.7500  17.0000 Du        
  10084 ****        -9.2500  -5.7500  17.2500 Du        
  10085 ****        -9.2500  -5.7500  17.5000 Du        
  10086 ****        -9.2500  -5.7500  17.7500 Du        
  10087 ****        -9.2500  -5.7500  18.0000 Du        
  10088 ****        -9.2500  -5.7500  18.2500 Du        
  10089 ****        -9.2500  -5.7500  18.5000 Du        
  10090 ****        -9.2500  -5.7500  18.7500 Du        
  10091 ****        -9.2500  -5.7500  19.0000 Du        
  10092 ****        -9.2500  -5.5000  18.7500 Du        
  10093 ****        -9.2500  -3.2500  23.5000 Du        
  10094 ****        -9.2500  -3.2500  23.7500 Du        
  10095 ****        -9.2500  -3.2500  24.0000 Du        
  10096 ****        -9.2500  -3.2500  24.2500 Du        
  10097 ****        -9.2500  -3.0000  23.2500 Du        
  10098 ****        -9.2500  -3.0000  23.5000 Du        
  10099 ****        -9.2500  -3.0000  23.7500 Du        
  10100 ****        -9.2500  -3.0000  24.0000 Du        
  10101 ****        -9.2500  -3.0000  24.2500 Du        
  10102 ****        -9.2500  -3.0000  24.5000 Du        
  10103 ****        -9.2500  -2.7500  22.7500 Du        
  10104 ****        -9.2500  -2.7500  23.0000 Du        
  10105 ****        -9.2500  -2.7500  23.2500 Du        
  10106 ****        -9.2500  -2.7500  23.5000 Du        
  10107 ****        -9.2500  -2.7500  23.7500 Du        
  10108 ****        -9.2500  -2.7500  24.0000 Du        
  10109 ****        -9.2500  -2.7500  24.2500 Du        
  10110 ****        -9.2500  -2.7500  24.5000 Du        
  10111 ****        -9.2500  -2.7500  24.7500 Du        
  10112 ****        -9.2500  -2.5000  22.5000 Du        
  10113 ****        -9.2500  -2.5000  22.7500 Du        
  10114 ****        -9.2500  -2.5000  23.0000 Du        
  10115 ****        -9.2500  -2.5000  23.2500 Du        
  10116 ****        -9.2500  -2.5000  23.5000 Du        
  10117 ****        -9.2500  -2.5000  23.7500 Du        
  10118 ****        -9.2500  -2.5000  24.0000 Du        
  10119 ****        -9.2500  -2.5000  24.2500 Du        
  10120 ****        -9.2500  -2.5000  24.5000 Du        
  10121 ****        -9.2500  -2.5000  24.7500 Du        
  10122 ****        -9.2500  -2.5000  25.0000 Du        
  10123 ****        -9.2500  -2.5000  25.2500 Du        
  10124 ****        -9.2500  -2.5000  25.5000 Du        
  10125 ****        -9.2500  -2.2500  22.5000 Du        
  10126 ****        -9.2500  -2.2500  22.7500 Du        
  10127 ****        -9.2500  -2.2500  23.0000 Du        
  10128 ****        -9.2500  -2.2500  23.2500 Du        
  10129 ****        -9.2500  -2.2500  23.5000 Du        
  10130 ****        -9.2500  -2.2500  23.7500 Du        
  10131 ****        -9.2500  -2.2500  24.0000 Du        
  10132 ****        -9.2500  -2.2500  24.2500 Du        
  10133 ****        -9.2500  -2.2500  24.5000 Du        
  10134 ****        -9.2500  -2.2500  24.7500 Du        
  10135 ****        -9.2500  -2.2500  25.0000 Du        
  10136 ****        -9.2500  -2.2500  25.2500 Du        
  10137 ****        -9.2500  -2.2500  25.5000 Du        
  10138 ****        -9.2500  -2.2500  25.7500 Du        
  10139 ****        -9.2500  -2.2500  26.0000 Du        
  10140 ****        -9.2500  -2.2500  26.2500 Du        
  10141 ****        -9.2500  -2.2500  26.5000 Du        
  10142 ****        -9.2500  -2.2500  26.7500 Du        
  10143 ****        -9.2500  -2.2500  27.0000 Du        
  10144 ****        -9.2500  -2.2500  27.2500 Du        
  10145 ****        -9.2500  -2.0000  22.5000 Du        
  10146 ****        -9.2500  -2.0000  22.7500 Du        
  10147 ****        -9.2500  -2.0000  23.0000 Du        
  10148 ****        -9.2500  -2.0000  23.2500 Du        
  10149 ****        -9.2500  -2.0000  23.5000 Du        
  10150 ****        -9.2500  -2.0000  23.7500 Du        
  10151 ****        -9.2500  -2.0000  24.0000 Du        
  10152 ****        -9.2500  -2.0000  24.2500 Du        
  10153 ****        -9.2500  -2.0000  24.5000 Du        
  10154 ****        -9.2500  -2.0000  24.7500 Du        
  10155 ****        -9.2500  -2.0000  25.0000 Du        
  10156 ****        -9.2500  -2.0000  25.2500 Du        
  10157 ****        -9.2500  -2.0000  25.5000 Du        
  10158 ****        -9.2500  -2.0000  25.7500 Du        
  10159 ****        -9.2500  -2.0000  26.0000 Du        
  10160 ****        -9.2500  -2.0000  26.2500 Du        
  10161 ****        -9.2500  -2.0000  26.5000 Du        
  10162 ****        -9.2500  -2.0000  26.7500 Du        
  10163 ****        -9.2500  -2.0000  27.0000 Du        
  10164 ****        -9.2500  -2.0000  27.2500 Du        
  10165 ****        -9.2500  -2.0000  27.5000 Du        
  10166 ****        -9.2500  -2.0000  27.7500 Du        
  10167 ****        -9.2500  -1.7500  22.5000 Du        
  10168 ****        -9.2500  -1.7500  22.7500 Du        
  10169 ****        -9.2500  -1.7500  23.0000 Du        
  10170 ****        -9.2500  -1.7500  23.2500 Du        
  10171 ****        -9.2500  -1.7500  23.5000 Du        
  10172 ****        -9.2500  -1.7500  23.7500 Du        
  10173 ****        -9.2500  -1.7500  24.0000 Du        
  10174 ****        -9.2500  -1.7500  24.2500 Du        
  10175 ****        -9.2500  -1.7500  24.5000 Du        
  10176 ****        -9.2500  -1.7500  24.7500 Du        
  10177 ****        -9.2500  -1.7500  25.0000 Du        
  10178 ****        -9.2500  -1.7500  25.2500 Du        
  10179 ****        -9.2500  -1.7500  25.5000 Du        
  10180 ****        -9.2500  -1.7500  25.7500 Du        
  10181 ****        -9.2500  -1.7500  26.0000 Du        
  10182 ****        -9.2500  -1.7500  26.2500 Du        
  10183 ****        -9.2500  -1.7500  26.5000 Du        
  10184 ****        -9.2500  -1.7500  26.7500 Du        
  10185 ****        -9.2500  -1.7500  27.0000 Du        
  10186 ****        -9.2500  -1.7500  27.2500 Du        
  10187 ****        -9.2500  -1.7500  27.5000 Du        
  10188 ****        -9.2500  -1.7500  27.7500 Du        
  10189 ****        -9.2500  -1.5000  22.5000 Du        
  10190 ****        -9.2500  -1.5000  22.7500 Du        
  10191 ****        -9.2500  -1.5000  23.0000 Du        
  10192 ****        -9.2500  -1.5000  23.2500 Du        
  10193 ****        -9.2500  -1.5000  23.5000 Du        
  10194 ****        -9.2500  -1.5000  23.7500 Du        
  10195 ****        -9.2500  -1.5000  24.0000 Du        
  10196 ****        -9.2500  -1.5000  24.2500 Du        
  10197 ****        -9.2500  -1.5000  24.5000 Du        
  10198 ****        -9.2500  -1.5000  24.7500 Du        
  10199 ****        -9.2500  -1.5000  25.0000 Du        
  10200 ****        -9.2500  -1.5000  25.2500 Du        
  10201 ****        -9.2500  -1.5000  25.5000 Du        
  10202 ****        -9.2500  -1.5000  25.7500 Du        
  10203 ****        -9.2500  -1.5000  26.0000 Du        
  10204 ****        -9.2500  -1.5000  26.2500 Du        
  10205 ****        -9.2500  -1.5000  26.5000 Du        
  10206 ****        -9.2500  -1.5000  26.7500 Du        
  10207 ****        -9.2500  -1.5000  27.0000 Du        
  10208 ****        -9.2500  -1.5000  27.2500 Du        
  10209 ****        -9.2500  -1.5000  27.5000 Du        
  10210 ****        -9.2500  -1.2500  22.7500 Du        
  10211 ****        -9.2500  -1.2500  23.0000 Du        
  10212 ****        -9.2500  -1.2500  23.2500 Du        
  10213 ****        -9.2500  -1.2500  23.5000 Du        
  10214 ****        -9.2500  -1.2500  23.7500 Du        
  10215 ****        -9.2500  -1.2500  24.0000 Du        
  10216 ****        -9.2500  -1.2500  24.2500 Du        
  10217 ****        -9.2500  -1.2500  24.5000 Du        
  10218 ****        -9.2500  -1.2500  24.7500 Du        
  10219 ****        -9.2500  -1.2500  25.0000 Du        
  10220 ****        -9.2500  -1.2500  25.2500 Du        
  10221 ****        -9.2500  -1.2500  25.5000 Du        
  10222 ****        -9.2500  -1.2500  25.7500 Du        
  10223 ****        -9.2500  -1.2500  26.0000 Du        
  10224 ****        -9.2500  -1.2500  26.2500 Du        
  10225 ****        -9.2500  -1.2500  26.5000 Du        
  10226 ****        -9.2500  -1.2500  26.7500 Du        
  10227 ****        -9.2500  -1.2500  27.0000 Du        
  10228 ****        -9.2500  -1.0000  22.7500 Du        
  10229 ****        -9.2500  -1.0000  23.0000 Du        
  10230 ****        -9.2500  -1.0000  23.2500 Du        
  10231 ****        -9.2500  -1.0000  23.5000 Du        
  10232 ****        -9.2500  -1.0000  23.7500 Du        
  10233 ****        -9.2500  -1.0000  24.0000 Du        
  10234 ****        -9.2500  -1.0000  24.2500 Du        
  10235 ****        -9.2500  -1.0000  24.5000 Du        
  10236 ****        -9.2500  -1.0000  24.7500 Du        
  10237 ****        -9.2500  -1.0000  25.0000 Du        
  10238 ****        -9.2500  -1.0000  25.2500 Du        
  10239 ****        -9.2500  -1.0000  25.5000 Du        
  10240 ****        -9.2500  -1.0000  25.7500 Du        
  10241 ****        -9.2500  -1.0000  26.0000 Du        
  10242 ****        -9.2500  -1.0000  26.2500 Du        
  10243 ****        -9.2500  -0.7500  23.0000 Du        
  10244 ****        -9.2500  -0.7500  23.2500 Du        
  10245 ****        -9.2500  -0.7500  23.5000 Du        
  10246 ****        -9.2500  -0.7500  23.7500 Du        
  10247 ****        -9.2500  -0.7500  24.0000 Du        
  10248 ****        -9.2500  -0.7500  24.2500 Du        
  10249 ****        -9.2500  -0.7500  24.5000 Du        
  10250 ****        -9.2500  -0.7500  24.7500 Du        
  10251 ****        -9.2500  -0.7500  25.0000 Du        
  10252 ****        -9.2500  -0.7500  25.2500 Du        
  10253 ****        -9.2500  -0.7500  25.5000 Du        
  10254 ****        -9.2500  -0.7500  25.7500 Du        
  10255 ****        -9.2500  -0.7500  26.0000 Du        
  10256 ****        -9.2500  -0.5000  23.5000 Du        
  10257 ****        -9.2500  -0.5000  23.7500 Du        
  10258 ****        -9.2500  -0.5000  24.0000 Du        
  10259 ****        -9.2500  -0.5000  24.2500 Du        
  10260 ****        -9.2500  -0.5000  24.5000 Du        
  10261 ****        -9.2500  -0.5000  24.7500 Du        
  10262 ****        -9.2500  -0.5000  25.0000 Du        
  10263 ****        -9.2500  -0.5000  25.2500 Du        
  10264 ****        -9.2500  -0.5000  25.5000 Du        
  10265 ****        -9.2500  -0.2500  23.5000 Du        
  10266 ****        -9.2500  -0.2500  23.7500 Du        
  10267 ****        -9.2500  -0.2500  24.0000 Du        
  10268 ****        -9.2500  -0.2500  24.2500 Du        
  10269 ****        -9.2500  -0.2500  24.5000 Du        
  10270 ****        -9.2500  -0.2500  24.7500 Du        
  10271 ****        -9.2500  -0.2500  25.0000 Du        
  10272 ****        -9.2500   0.0000  23.7500 Du        
  10273 ****        -9.2500   0.0000  24.0000 Du        
  10274 ****        -9.2500   0.0000  24.2500 Du        
  10275 ****        -9.2500   0.0000  24.5000 Du        
  10276 ****        -9.2500   0.0000  24.7500 Du        
  10277 ****        -9.2500   0.2500  24.0000 Du        
  10278 ****        -9.2500   0.2500  24.2500 Du        
  10279 ****        -9.2500   0.2500  24.5000 Du        
  10280 ****        -9.2500   0.2500  24.7500 Du        
  10281 ****        -9.2500   2.0000  24.5000 Du        
  10282 ****        -9.2500   2.0000  24.7500 Du        
  10283 ****        -9.2500   2.2500  24.5000 Du        
  10284 ****        -9.2500   2.2500  24.7500 Du        
  10285 ****        -9.2500   2.2500  25.0000 Du        
  10286 ****        -9.2500   2.2500  25.2500 Du        
  10287 ****        -9.2500   2.2500  25.5000 Du        
  10288 ****        -9.2500   2.5000  24.7500 Du        
  10289 ****        -9.2500   2.5000  25.0000 Du        
  10290 ****        -9.2500   2.5000  25.2500 Du        
  10291 ****        -9.2500   2.5000  25.5000 Du        
  10292 ****        -9.2500   2.7500  24.7500 Du        
  10293 ****        -9.2500   2.7500  25.0000 Du        
  10294 ****        -9.2500   2.7500  25.2500 Du        
  10295 ****        -9.2500   2.7500  25.5000 Du        
  10296 ****        -9.2500   2.7500  25.7500 Du        
  10297 ****        -9.2500   2.7500  26.0000 Du        
  10298 ****        -9.2500   3.0000  24.7500 Du        
  10299 ****        -9.2500   3.0000  25.0000 Du        
  10300 ****        -9.2500   3.0000  25.2500 Du        
  10301 ****        -9.2500   3.0000  25.5000 Du        
  10302 ****        -9.2500   3.0000  25.7500 Du        
  10303 ****        -9.2500   3.0000  26.0000 Du        
  10304 ****        -9.2500   3.2500  25.0000 Du        
  10305 ****        -9.2500   3.2500  25.2500 Du        
  10306 ****        -9.2500   3.2500  25.5000 Du        
  10307 ****        -9.2500   3.2500  25.7500 Du        
  10308 ****        -9.2500   3.2500  26.0000 Du        
  10309 ****        -9.2500   3.5000  25.5000 Du        
  10310 ****        -9.2500   3.5000  25.7500 Du        
  10311 ****        -9.2500   3.5000  26.0000 Du        
  10312 ****        -9.2500   3.7500  25.2500 Du        
  10313 ****        -9.2500   3.7500  25.5000 Du        
  10314 ****        -9.2500   3.7500  25.7500 Du        
  10315 ****        -9.2500   3.7500  26.0000 Du        
  10316 ****        -9.2500   4.0000  25.5000 Du        
  10317 ****        -9.2500   4.0000  25.7500 Du        
  10318 ****        -9.2500   4.0000  26.0000 Du        
  10319 ****        -9.2500   4.2500  25.7500 Du        
  10320 ****        -9.2500   4.2500  26.0000 Du        
  10321 ****        -9.0000 -14.0000  15.0000 Du        
  10322 ****        -9.0000 -14.0000  15.2500 Du        
  10323 ****        -9.0000 -14.0000  15.5000 Du        
  10324 ****        -9.0000 -14.0000  15.7500 Du        
  10325 ****        -9.0000 -14.0000  16.0000 Du        
  10326 ****        -9.0000 -14.0000  16.2500 Du        
  10327 ****        -9.0000 -14.0000  16.5000 Du        
  10328 ****        -9.0000 -14.0000  16.7500 Du        
  10329 ****        -9.0000 -14.0000  17.0000 Du        
  10330 ****        -9.0000 -14.0000  17.2500 Du        
  10331 ****        -9.0000 -14.0000  17.5000 Du        
  10332 ****        -9.0000 -14.0000  17.7500 Du        
  10333 ****        -9.0000 -14.0000  18.0000 Du        
  10334 ****        -9.0000 -14.0000  18.2500 Du        
  10335 ****        -9.0000 -14.0000  18.5000 Du        
  10336 ****        -9.0000 -14.0000  18.7500 Du        
  10337 ****        -9.0000 -14.0000  19.0000 Du        
  10338 ****        -9.0000 -13.7500  15.0000 Du        
  10339 ****        -9.0000 -13.7500  15.2500 Du        
  10340 ****        -9.0000 -13.7500  15.5000 Du        
  10341 ****        -9.0000 -13.7500  15.7500 Du        
  10342 ****        -9.0000 -13.7500  16.0000 Du        
  10343 ****        -9.0000 -13.7500  16.2500 Du        
  10344 ****        -9.0000 -13.7500  16.5000 Du        
  10345 ****        -9.0000 -13.7500  16.7500 Du        
  10346 ****        -9.0000 -13.7500  17.0000 Du        
  10347 ****        -9.0000 -13.7500  17.2500 Du        
  10348 ****        -9.0000 -13.7500  17.5000 Du        
  10349 ****        -9.0000 -13.7500  17.7500 Du        
  10350 ****        -9.0000 -13.7500  18.0000 Du        
  10351 ****        -9.0000 -13.7500  18.2500 Du        
  10352 ****        -9.0000 -13.7500  18.5000 Du        
  10353 ****        -9.0000 -13.7500  18.7500 Du        
  10354 ****        -9.0000 -13.7500  19.0000 Du        
  10355 ****        -9.0000 -13.7500  19.2500 Du        
  10356 ****        -9.0000 -13.5000  14.7500 Du        
  10357 ****        -9.0000 -13.5000  15.0000 Du        
  10358 ****        -9.0000 -13.5000  15.2500 Du        
  10359 ****        -9.0000 -13.5000  15.5000 Du        
  10360 ****        -9.0000 -13.5000  15.7500 Du        
  10361 ****        -9.0000 -13.5000  16.0000 Du        
  10362 ****        -9.0000 -13.5000  16.2500 Du        
  10363 ****        -9.0000 -13.5000  16.5000 Du        
  10364 ****        -9.0000 -13.5000  16.7500 Du        
  10365 ****        -9.0000 -13.5000  17.0000 Du        
  10366 ****        -9.0000 -13.5000  17.2500 Du        
  10367 ****        -9.0000 -13.5000  17.5000 Du        
  10368 ****        -9.0000 -13.5000  17.7500 Du        
  10369 ****        -9.0000 -13.5000  18.0000 Du        
  10370 ****        -9.0000 -13.5000  18.2500 Du        
  10371 ****        -9.0000 -13.5000  18.5000 Du        
  10372 ****        -9.0000 -13.5000  18.7500 Du        
  10373 ****        -9.0000 -13.5000  19.0000 Du        
  10374 ****        -9.0000 -13.5000  19.2500 Du        
  10375 ****        -9.0000 -13.2500  14.7500 Du        
  10376 ****        -9.0000 -13.2500  15.0000 Du        
  10377 ****        -9.0000 -13.2500  15.2500 Du        
  10378 ****        -9.0000 -13.2500  15.5000 Du        
  10379 ****        -9.0000 -13.2500  15.7500 Du        
  10380 ****        -9.0000 -13.2500  16.0000 Du        
  10381 ****        -9.0000 -13.2500  16.2500 Du        
  10382 ****        -9.0000 -13.2500  16.5000 Du        
  10383 ****        -9.0000 -13.2500  16.7500 Du        
  10384 ****        -9.0000 -13.2500  17.0000 Du        
  10385 ****        -9.0000 -13.2500  17.2500 Du        
  10386 ****        -9.0000 -13.2500  17.5000 Du        
  10387 ****        -9.0000 -13.2500  17.7500 Du        
  10388 ****        -9.0000 -13.2500  18.0000 Du        
  10389 ****        -9.0000 -13.2500  18.2500 Du        
  10390 ****        -9.0000 -13.2500  18.5000 Du        
  10391 ****        -9.0000 -13.2500  18.7500 Du        
  10392 ****        -9.0000 -13.2500  19.0000 Du        
  10393 ****        -9.0000 -13.2500  19.2500 Du        
  10394 ****        -9.0000 -13.0000  14.7500 Du        
  10395 ****        -9.0000 -13.0000  15.0000 Du        
  10396 ****        -9.0000 -13.0000  15.2500 Du        
  10397 ****        -9.0000 -13.0000  15.5000 Du        
  10398 ****        -9.0000 -13.0000  15.7500 Du        
  10399 ****        -9.0000 -13.0000  16.0000 Du        
  10400 ****        -9.0000 -13.0000  16.2500 Du        
  10401 ****        -9.0000 -13.0000  16.5000 Du        
  10402 ****        -9.0000 -13.0000  16.7500 Du        
  10403 ****        -9.0000 -13.0000  17.0000 Du        
  10404 ****        -9.0000 -13.0000  17.2500 Du        
  10405 ****        -9.0000 -13.0000  17.5000 Du        
  10406 ****        -9.0000 -13.0000  17.7500 Du        
  10407 ****        -9.0000 -13.0000  18.0000 Du        
  10408 ****        -9.0000 -13.0000  18.2500 Du        
  10409 ****        -9.0000 -13.0000  18.5000 Du        
  10410 ****        -9.0000 -13.0000  18.7500 Du        
  10411 ****        -9.0000 -13.0000  19.0000 Du        
  10412 ****        -9.0000 -13.0000  19.2500 Du        
  10413 ****        -9.0000 -12.7500  15.0000 Du        
  10414 ****        -9.0000 -12.7500  15.2500 Du        
  10415 ****        -9.0000 -12.7500  15.5000 Du        
  10416 ****        -9.0000 -12.7500  15.7500 Du        
  10417 ****        -9.0000 -12.7500  16.0000 Du        
  10418 ****        -9.0000 -12.7500  16.2500 Du        
  10419 ****        -9.0000 -12.7500  16.5000 Du        
  10420 ****        -9.0000 -12.7500  16.7500 Du        
  10421 ****        -9.0000 -12.7500  17.0000 Du        
  10422 ****        -9.0000 -12.7500  17.2500 Du        
  10423 ****        -9.0000 -12.7500  17.5000 Du        
  10424 ****        -9.0000 -12.7500  17.7500 Du        
  10425 ****        -9.0000 -12.7500  18.0000 Du        
  10426 ****        -9.0000 -12.7500  18.2500 Du        
  10427 ****        -9.0000 -12.7500  18.5000 Du        
  10428 ****        -9.0000 -12.7500  18.7500 Du        
  10429 ****        -9.0000 -12.7500  19.0000 Du        
  10430 ****        -9.0000 -12.5000  15.0000 Du        
  10431 ****        -9.0000 -12.5000  15.2500 Du        
  10432 ****        -9.0000 -12.5000  15.5000 Du        
  10433 ****        -9.0000 -12.5000  15.7500 Du        
  10434 ****        -9.0000 -12.5000  16.0000 Du        
  10435 ****        -9.0000 -12.5000  16.2500 Du        
  10436 ****        -9.0000 -12.5000  16.5000 Du        
  10437 ****        -9.0000 -12.5000  16.7500 Du        
  10438 ****        -9.0000 -12.5000  17.0000 Du        
  10439 ****        -9.0000 -12.5000  17.2500 Du        
  10440 ****        -9.0000 -12.5000  17.5000 Du        
  10441 ****        -9.0000 -12.5000  17.7500 Du        
  10442 ****        -9.0000 -12.5000  18.0000 Du        
  10443 ****        -9.0000 -12.5000  18.2500 Du        
  10444 ****        -9.0000 -12.5000  18.5000 Du        
  10445 ****        -9.0000 -12.5000  18.7500 Du        
  10446 ****        -9.0000 -12.5000  19.0000 Du        
  10447 ****        -9.0000 -12.2500  15.0000 Du        
  10448 ****        -9.0000 -12.2500  15.2500 Du        
  10449 ****        -9.0000 -12.2500  15.5000 Du        
  10450 ****        -9.0000 -12.2500  15.7500 Du        
  10451 ****        -9.0000 -12.2500  16.0000 Du        
  10452 ****        -9.0000 -12.2500  16.2500 Du        
  10453 ****        -9.0000 -12.2500  16.5000 Du        
  10454 ****        -9.0000 -12.2500  16.7500 Du        
  10455 ****        -9.0000 -12.2500  17.0000 Du        
  10456 ****        -9.0000 -12.2500  17.2500 Du        
  10457 ****        -9.0000 -12.2500  17.5000 Du        
  10458 ****        -9.0000 -12.2500  17.7500 Du        
  10459 ****        -9.0000 -12.2500  18.0000 Du        
  10460 ****        -9.0000 -12.2500  18.2500 Du        
  10461 ****        -9.0000 -12.2500  18.5000 Du        
  10462 ****        -9.0000 -12.2500  18.7500 Du        
  10463 ****        -9.0000 -12.2500  19.0000 Du        
  10464 ****        -9.0000 -12.0000  15.0000 Du        
  10465 ****        -9.0000 -12.0000  15.2500 Du        
  10466 ****        -9.0000 -12.0000  15.5000 Du        
  10467 ****        -9.0000 -12.0000  15.7500 Du        
  10468 ****        -9.0000 -12.0000  16.0000 Du        
  10469 ****        -9.0000 -12.0000  16.2500 Du        
  10470 ****        -9.0000 -12.0000  16.5000 Du        
  10471 ****        -9.0000 -12.0000  16.7500 Du        
  10472 ****        -9.0000 -12.0000  17.0000 Du        
  10473 ****        -9.0000 -12.0000  17.2500 Du        
  10474 ****        -9.0000 -12.0000  17.5000 Du        
  10475 ****        -9.0000 -12.0000  17.7500 Du        
  10476 ****        -9.0000 -12.0000  18.0000 Du        
  10477 ****        -9.0000 -12.0000  18.2500 Du        
  10478 ****        -9.0000 -12.0000  18.5000 Du        
  10479 ****        -9.0000 -12.0000  18.7500 Du        
  10480 ****        -9.0000 -11.7500  15.0000 Du        
  10481 ****        -9.0000 -11.7500  15.2500 Du        
  10482 ****        -9.0000 -11.7500  15.5000 Du        
  10483 ****        -9.0000 -11.7500  15.7500 Du        
  10484 ****        -9.0000 -11.7500  16.0000 Du        
  10485 ****        -9.0000 -11.7500  16.2500 Du        
  10486 ****        -9.0000 -11.7500  16.5000 Du        
  10487 ****        -9.0000 -11.7500  16.7500 Du        
  10488 ****        -9.0000 -11.7500  17.0000 Du        
  10489 ****        -9.0000 -11.7500  17.2500 Du        
  10490 ****        -9.0000 -11.7500  17.5000 Du        
  10491 ****        -9.0000 -11.7500  17.7500 Du        
  10492 ****        -9.0000 -11.7500  18.0000 Du        
  10493 ****        -9.0000 -11.7500  18.2500 Du        
  10494 ****        -9.0000 -11.7500  18.5000 Du        
  10495 ****        -9.0000 -11.7500  18.7500 Du        
  10496 ****        -9.0000 -11.5000  15.0000 Du        
  10497 ****        -9.0000 -11.5000  15.2500 Du        
  10498 ****        -9.0000 -11.5000  15.5000 Du        
  10499 ****        -9.0000 -11.5000  15.7500 Du        
  10500 ****        -9.0000 -11.5000  16.0000 Du        
  10501 ****        -9.0000 -11.5000  16.2500 Du        
  10502 ****        -9.0000 -11.5000  16.5000 Du        
  10503 ****        -9.0000 -11.5000  16.7500 Du        
  10504 ****        -9.0000 -11.5000  17.0000 Du        
  10505 ****        -9.0000 -11.5000  17.2500 Du        
  10506 ****        -9.0000 -11.5000  17.5000 Du        
  10507 ****        -9.0000 -11.5000  17.7500 Du        
  10508 ****        -9.0000 -11.5000  18.0000 Du        
  10509 ****        -9.0000 -11.5000  18.2500 Du        
  10510 ****        -9.0000 -11.5000  18.5000 Du        
  10511 ****        -9.0000 -11.5000  18.7500 Du        
  10512 ****        -9.0000 -11.2500  14.7500 Du        
  10513 ****        -9.0000 -11.2500  15.0000 Du        
  10514 ****        -9.0000 -11.2500  15.2500 Du        
  10515 ****        -9.0000 -11.2500  15.5000 Du        
  10516 ****        -9.0000 -11.2500  15.7500 Du        
  10517 ****        -9.0000 -11.2500  16.0000 Du        
  10518 ****        -9.0000 -11.2500  16.2500 Du        
  10519 ****        -9.0000 -11.2500  16.5000 Du        
  10520 ****        -9.0000 -11.2500  16.7500 Du        
  10521 ****        -9.0000 -11.2500  17.0000 Du        
  10522 ****        -9.0000 -11.2500  17.2500 Du        
  10523 ****        -9.0000 -11.2500  17.5000 Du        
  10524 ****        -9.0000 -11.2500  17.7500 Du        
  10525 ****        -9.0000 -11.2500  18.0000 Du        
  10526 ****        -9.0000 -11.2500  18.2500 Du        
  10527 ****        -9.0000 -11.2500  18.5000 Du        
  10528 ****        -9.0000 -11.2500  18.7500 Du        
  10529 ****        -9.0000 -11.2500  23.7500 Du        
  10530 ****        -9.0000 -11.0000  14.7500 Du        
  10531 ****        -9.0000 -11.0000  15.0000 Du        
  10532 ****        -9.0000 -11.0000  15.2500 Du        
  10533 ****        -9.0000 -11.0000  15.5000 Du        
  10534 ****        -9.0000 -11.0000  15.7500 Du        
  10535 ****        -9.0000 -11.0000  16.0000 Du        
  10536 ****        -9.0000 -11.0000  16.2500 Du        
  10537 ****        -9.0000 -11.0000  16.5000 Du        
  10538 ****        -9.0000 -11.0000  16.7500 Du        
  10539 ****        -9.0000 -11.0000  17.0000 Du        
  10540 ****        -9.0000 -11.0000  17.2500 Du        
  10541 ****        -9.0000 -11.0000  17.5000 Du        
  10542 ****        -9.0000 -11.0000  17.7500 Du        
  10543 ****        -9.0000 -11.0000  18.0000 Du        
  10544 ****        -9.0000 -11.0000  18.2500 Du        
  10545 ****        -9.0000 -11.0000  18.5000 Du        
  10546 ****        -9.0000 -11.0000  18.7500 Du        
  10547 ****        -9.0000 -11.0000  19.0000 Du        
  10548 ****        -9.0000 -11.0000  23.5000 Du        
  10549 ****        -9.0000 -11.0000  23.7500 Du        
  10550 ****        -9.0000 -10.7500  14.7500 Du        
  10551 ****        -9.0000 -10.7500  15.0000 Du        
  10552 ****        -9.0000 -10.7500  15.2500 Du        
  10553 ****        -9.0000 -10.7500  15.5000 Du        
  10554 ****        -9.0000 -10.7500  15.7500 Du        
  10555 ****        -9.0000 -10.7500  16.0000 Du        
  10556 ****        -9.0000 -10.7500  16.2500 Du        
  10557 ****        -9.0000 -10.7500  16.5000 Du        
  10558 ****        -9.0000 -10.7500  16.7500 Du        
  10559 ****        -9.0000 -10.7500  17.0000 Du        
  10560 ****        -9.0000 -10.7500  17.2500 Du        
  10561 ****        -9.0000 -10.7500  17.5000 Du        
  10562 ****        -9.0000 -10.7500  17.7500 Du        
  10563 ****        -9.0000 -10.7500  18.0000 Du        
  10564 ****        -9.0000 -10.7500  18.2500 Du        
  10565 ****        -9.0000 -10.7500  18.5000 Du        
  10566 ****        -9.0000 -10.7500  18.7500 Du        
  10567 ****        -9.0000 -10.7500  19.0000 Du        
  10568 ****        -9.0000 -10.7500  23.5000 Du        
  10569 ****        -9.0000 -10.7500  23.7500 Du        
  10570 ****        -9.0000 -10.5000  14.5000 Du        
  10571 ****        -9.0000 -10.5000  14.7500 Du        
  10572 ****        -9.0000 -10.5000  15.0000 Du        
  10573 ****        -9.0000 -10.5000  15.2500 Du        
  10574 ****        -9.0000 -10.5000  15.5000 Du        
  10575 ****        -9.0000 -10.5000  15.7500 Du        
  10576 ****        -9.0000 -10.5000  16.0000 Du        
  10577 ****        -9.0000 -10.5000  16.2500 Du        
  10578 ****        -9.0000 -10.5000  16.5000 Du        
  10579 ****        -9.0000 -10.5000  16.7500 Du        
  10580 ****        -9.0000 -10.5000  17.0000 Du        
  10581 ****        -9.0000 -10.5000  17.2500 Du        
  10582 ****        -9.0000 -10.5000  17.5000 Du        
  10583 ****        -9.0000 -10.5000  17.7500 Du        
  10584 ****        -9.0000 -10.5000  18.0000 Du        
  10585 ****        -9.0000 -10.5000  18.2500 Du        
  10586 ****        -9.0000 -10.5000  18.5000 Du        
  10587 ****        -9.0000 -10.5000  18.7500 Du        
  10588 ****        -9.0000 -10.5000  19.0000 Du        
  10589 ****        -9.0000 -10.2500  14.2500 Du        
  10590 ****        -9.0000 -10.2500  14.5000 Du        
  10591 ****        -9.0000 -10.2500  14.7500 Du        
  10592 ****        -9.0000 -10.2500  15.0000 Du        
  10593 ****        -9.0000 -10.2500  15.2500 Du        
  10594 ****        -9.0000 -10.2500  15.5000 Du        
  10595 ****        -9.0000 -10.2500  15.7500 Du        
  10596 ****        -9.0000 -10.2500  16.0000 Du        
  10597 ****        -9.0000 -10.2500  16.2500 Du        
  10598 ****        -9.0000 -10.2500  16.5000 Du        
  10599 ****        -9.0000 -10.2500  16.7500 Du        
  10600 ****        -9.0000 -10.2500  17.0000 Du        
  10601 ****        -9.0000 -10.2500  17.2500 Du        
  10602 ****        -9.0000 -10.2500  17.5000 Du        
  10603 ****        -9.0000 -10.2500  17.7500 Du        
  10604 ****        -9.0000 -10.2500  18.0000 Du        
  10605 ****        -9.0000 -10.2500  18.2500 Du        
  10606 ****        -9.0000 -10.2500  18.5000 Du        
  10607 ****        -9.0000 -10.2500  18.7500 Du        
  10608 ****        -9.0000 -10.2500  19.0000 Du        
  10609 ****        -9.0000 -10.2500  19.2500 Du        
  10610 ****        -9.0000 -10.2500  19.5000 Du        
  10611 ****        -9.0000 -10.0000  14.0000 Du        
  10612 ****        -9.0000 -10.0000  14.2500 Du        
  10613 ****        -9.0000 -10.0000  14.5000 Du        
  10614 ****        -9.0000 -10.0000  14.7500 Du        
  10615 ****        -9.0000 -10.0000  15.0000 Du        
  10616 ****        -9.0000 -10.0000  15.2500 Du        
  10617 ****        -9.0000 -10.0000  15.5000 Du        
  10618 ****        -9.0000 -10.0000  15.7500 Du        
  10619 ****        -9.0000 -10.0000  16.0000 Du        
  10620 ****        -9.0000 -10.0000  16.2500 Du        
  10621 ****        -9.0000 -10.0000  16.5000 Du        
  10622 ****        -9.0000 -10.0000  16.7500 Du        
  10623 ****        -9.0000 -10.0000  17.2500 Du        
  10624 ****        -9.0000 -10.0000  17.5000 Du        
  10625 ****        -9.0000 -10.0000  17.7500 Du        
  10626 ****        -9.0000 -10.0000  18.0000 Du        
  10627 ****        -9.0000 -10.0000  18.2500 Du        
  10628 ****        -9.0000 -10.0000  18.5000 Du        
  10629 ****        -9.0000 -10.0000  18.7500 Du        
  10630 ****        -9.0000 -10.0000  19.0000 Du        
  10631 ****        -9.0000 -10.0000  19.2500 Du        
  10632 ****        -9.0000 -10.0000  19.5000 Du        
  10633 ****        -9.0000 -10.0000  19.7500 Du        
  10634 ****        -9.0000 -10.0000  20.0000 Du        
  10635 ****        -9.0000 -10.0000  20.2500 Du        
  10636 ****        -9.0000  -9.7500  13.7500 Du        
  10637 ****        -9.0000  -9.7500  14.0000 Du        
  10638 ****        -9.0000  -9.7500  14.2500 Du        
  10639 ****        -9.0000  -9.7500  14.5000 Du        
  10640 ****        -9.0000  -9.7500  14.7500 Du        
  10641 ****        -9.0000  -9.7500  15.0000 Du        
  10642 ****        -9.0000  -9.7500  15.2500 Du        
  10643 ****        -9.0000  -9.7500  15.5000 Du        
  10644 ****        -9.0000  -9.7500  15.7500 Du        
  10645 ****        -9.0000  -9.7500  16.0000 Du        
  10646 ****        -9.0000  -9.7500  16.2500 Du        
  10647 ****        -9.0000  -9.7500  18.0000 Du        
  10648 ****        -9.0000  -9.7500  18.2500 Du        
  10649 ****        -9.0000  -9.7500  18.5000 Du        
  10650 ****        -9.0000  -9.7500  18.7500 Du        
  10651 ****        -9.0000  -9.7500  19.0000 Du        
  10652 ****        -9.0000  -9.7500  19.2500 Du        
  10653 ****        -9.0000  -9.7500  19.5000 Du        
  10654 ****        -9.0000  -9.7500  19.7500 Du        
  10655 ****        -9.0000  -9.7500  20.0000 Du        
  10656 ****        -9.0000  -9.7500  20.2500 Du        
  10657 ****        -9.0000  -9.7500  20.5000 Du        
  10658 ****        -9.0000  -9.7500  20.7500 Du        
  10659 ****        -9.0000  -9.5000  13.7500 Du        
  10660 ****        -9.0000  -9.5000  14.0000 Du        
  10661 ****        -9.0000  -9.5000  14.2500 Du        
  10662 ****        -9.0000  -9.5000  14.5000 Du        
  10663 ****        -9.0000  -9.5000  14.7500 Du        
  10664 ****        -9.0000  -9.5000  15.0000 Du        
  10665 ****        -9.0000  -9.5000  15.2500 Du        
  10666 ****        -9.0000  -9.5000  15.5000 Du        
  10667 ****        -9.0000  -9.5000  15.7500 Du        
  10668 ****        -9.0000  -9.5000  16.0000 Du        
  10669 ****        -9.0000  -9.5000  18.0000 Du        
  10670 ****        -9.0000  -9.5000  18.2500 Du        
  10671 ****        -9.0000  -9.5000  18.5000 Du        
  10672 ****        -9.0000  -9.5000  18.7500 Du        
  10673 ****        -9.0000  -9.5000  19.0000 Du        
  10674 ****        -9.0000  -9.5000  19.2500 Du        
  10675 ****        -9.0000  -9.5000  19.5000 Du        
  10676 ****        -9.0000  -9.5000  19.7500 Du        
  10677 ****        -9.0000  -9.5000  20.0000 Du        
  10678 ****        -9.0000  -9.5000  20.2500 Du        
  10679 ****        -9.0000  -9.5000  20.5000 Du        
  10680 ****        -9.0000  -9.5000  20.7500 Du        
  10681 ****        -9.0000  -9.2500  13.7500 Du        
  10682 ****        -9.0000  -9.2500  14.0000 Du        
  10683 ****        -9.0000  -9.2500  14.2500 Du        
  10684 ****        -9.0000  -9.2500  14.5000 Du        
  10685 ****        -9.0000  -9.2500  14.7500 Du        
  10686 ****        -9.0000  -9.2500  15.0000 Du        
  10687 ****        -9.0000  -9.2500  15.2500 Du        
  10688 ****        -9.0000  -9.2500  15.5000 Du        
  10689 ****        -9.0000  -9.2500  15.7500 Du        
  10690 ****        -9.0000  -9.2500  16.0000 Du        
  10691 ****        -9.0000  -9.2500  16.2500 Du        
  10692 ****        -9.0000  -9.2500  18.0000 Du        
  10693 ****        -9.0000  -9.2500  18.2500 Du        
  10694 ****        -9.0000  -9.2500  18.5000 Du        
  10695 ****        -9.0000  -9.2500  18.7500 Du        
  10696 ****        -9.0000  -9.2500  19.0000 Du        
  10697 ****        -9.0000  -9.2500  19.2500 Du        
  10698 ****        -9.0000  -9.2500  19.5000 Du        
  10699 ****        -9.0000  -9.2500  19.7500 Du        
  10700 ****        -9.0000  -9.2500  20.0000 Du        
  10701 ****        -9.0000  -9.2500  20.2500 Du        
  10702 ****        -9.0000  -9.2500  20.5000 Du        
  10703 ****        -9.0000  -9.2500  20.7500 Du        
  10704 ****        -9.0000  -9.0000  14.0000 Du        
  10705 ****        -9.0000  -9.0000  14.2500 Du        
  10706 ****        -9.0000  -9.0000  14.5000 Du        
  10707 ****        -9.0000  -9.0000  14.7500 Du        
  10708 ****        -9.0000  -9.0000  15.0000 Du        
  10709 ****        -9.0000  -9.0000  15.2500 Du        
  10710 ****        -9.0000  -9.0000  15.5000 Du        
  10711 ****        -9.0000  -9.0000  15.7500 Du        
  10712 ****        -9.0000  -9.0000  16.0000 Du        
  10713 ****        -9.0000  -9.0000  16.2500 Du        
  10714 ****        -9.0000  -9.0000  17.7500 Du        
  10715 ****        -9.0000  -9.0000  18.0000 Du        
  10716 ****        -9.0000  -9.0000  18.2500 Du        
  10717 ****        -9.0000  -9.0000  18.5000 Du        
  10718 ****        -9.0000  -9.0000  18.7500 Du        
  10719 ****        -9.0000  -9.0000  19.0000 Du        
  10720 ****        -9.0000  -9.0000  19.2500 Du        
  10721 ****        -9.0000  -9.0000  19.5000 Du        
  10722 ****        -9.0000  -9.0000  19.7500 Du        
  10723 ****        -9.0000  -9.0000  20.0000 Du        
  10724 ****        -9.0000  -9.0000  20.2500 Du        
  10725 ****        -9.0000  -9.0000  20.5000 Du        
  10726 ****        -9.0000  -8.7500  14.7500 Du        
  10727 ****        -9.0000  -8.7500  15.0000 Du        
  10728 ****        -9.0000  -8.7500  15.2500 Du        
  10729 ****        -9.0000  -8.7500  15.5000 Du        
  10730 ****        -9.0000  -8.7500  15.7500 Du        
  10731 ****        -9.0000  -8.7500  16.0000 Du        
  10732 ****        -9.0000  -8.7500  16.2500 Du        
  10733 ****        -9.0000  -8.7500  16.5000 Du        
  10734 ****        -9.0000  -8.7500  16.7500 Du        
  10735 ****        -9.0000  -8.7500  17.0000 Du        
  10736 ****        -9.0000  -8.7500  17.2500 Du        
  10737 ****        -9.0000  -8.7500  17.5000 Du        
  10738 ****        -9.0000  -8.7500  17.7500 Du        
  10739 ****        -9.0000  -8.7500  18.0000 Du        
  10740 ****        -9.0000  -8.7500  18.2500 Du        
  10741 ****        -9.0000  -8.7500  18.5000 Du        
  10742 ****        -9.0000  -8.7500  18.7500 Du        
  10743 ****        -9.0000  -8.7500  19.0000 Du        
  10744 ****        -9.0000  -8.7500  19.2500 Du        
  10745 ****        -9.0000  -8.7500  19.5000 Du        
  10746 ****        -9.0000  -8.7500  19.7500 Du        
  10747 ****        -9.0000  -8.7500  20.0000 Du        
  10748 ****        -9.0000  -8.7500  20.2500 Du        
  10749 ****        -9.0000  -8.7500  20.5000 Du        
  10750 ****        -9.0000  -8.5000  15.2500 Du        
  10751 ****        -9.0000  -8.5000  15.5000 Du        
  10752 ****        -9.0000  -8.5000  15.7500 Du        
  10753 ****        -9.0000  -8.5000  16.0000 Du        
  10754 ****        -9.0000  -8.5000  16.2500 Du        
  10755 ****        -9.0000  -8.5000  16.5000 Du        
  10756 ****        -9.0000  -8.5000  16.7500 Du        
  10757 ****        -9.0000  -8.5000  17.0000 Du        
  10758 ****        -9.0000  -8.5000  17.2500 Du        
  10759 ****        -9.0000  -8.5000  17.5000 Du        
  10760 ****        -9.0000  -8.5000  17.7500 Du        
  10761 ****        -9.0000  -8.5000  18.0000 Du        
  10762 ****        -9.0000  -8.5000  18.2500 Du        
  10763 ****        -9.0000  -8.5000  18.5000 Du        
  10764 ****        -9.0000  -8.5000  18.7500 Du        
  10765 ****        -9.0000  -8.5000  19.0000 Du        
  10766 ****        -9.0000  -8.5000  19.2500 Du        
  10767 ****        -9.0000  -8.5000  19.5000 Du        
  10768 ****        -9.0000  -8.5000  19.7500 Du        
  10769 ****        -9.0000  -8.5000  20.0000 Du        
  10770 ****        -9.0000  -8.5000  20.2500 Du        
  10771 ****        -9.0000  -8.2500  15.5000 Du        
  10772 ****        -9.0000  -8.2500  15.7500 Du        
  10773 ****        -9.0000  -8.2500  16.0000 Du        
  10774 ****        -9.0000  -8.2500  16.2500 Du        
  10775 ****        -9.0000  -8.2500  16.5000 Du        
  10776 ****        -9.0000  -8.2500  16.7500 Du        
  10777 ****        -9.0000  -8.2500  17.0000 Du        
  10778 ****        -9.0000  -8.2500  17.2500 Du        
  10779 ****        -9.0000  -8.2500  17.5000 Du        
  10780 ****        -9.0000  -8.2500  17.7500 Du        
  10781 ****        -9.0000  -8.2500  18.0000 Du        
  10782 ****        -9.0000  -8.2500  18.2500 Du        
  10783 ****        -9.0000  -8.2500  18.5000 Du        
  10784 ****        -9.0000  -8.2500  18.7500 Du        
  10785 ****        -9.0000  -8.2500  19.0000 Du        
  10786 ****        -9.0000  -8.2500  19.2500 Du        
  10787 ****        -9.0000  -8.2500  19.5000 Du        
  10788 ****        -9.0000  -8.2500  19.7500 Du        
  10789 ****        -9.0000  -8.2500  20.0000 Du        
  10790 ****        -9.0000  -8.2500  20.2500 Du        
  10791 ****        -9.0000  -8.0000  15.5000 Du        
  10792 ****        -9.0000  -8.0000  15.7500 Du        
  10793 ****        -9.0000  -8.0000  16.0000 Du        
  10794 ****        -9.0000  -8.0000  16.2500 Du        
  10795 ****        -9.0000  -8.0000  16.5000 Du        
  10796 ****        -9.0000  -8.0000  16.7500 Du        
  10797 ****        -9.0000  -8.0000  17.0000 Du        
  10798 ****        -9.0000  -8.0000  17.2500 Du        
  10799 ****        -9.0000  -8.0000  17.5000 Du        
  10800 ****        -9.0000  -8.0000  17.7500 Du        
  10801 ****        -9.0000  -8.0000  18.0000 Du        
  10802 ****        -9.0000  -8.0000  18.2500 Du        
  10803 ****        -9.0000  -8.0000  18.5000 Du        
  10804 ****        -9.0000  -8.0000  18.7500 Du        
  10805 ****        -9.0000  -8.0000  19.0000 Du        
  10806 ****        -9.0000  -8.0000  19.2500 Du        
  10807 ****        -9.0000  -8.0000  19.5000 Du        
  10808 ****        -9.0000  -8.0000  19.7500 Du        
  10809 ****        -9.0000  -8.0000  20.0000 Du        
  10810 ****        -9.0000  -7.7500  15.7500 Du        
  10811 ****        -9.0000  -7.7500  16.0000 Du        
  10812 ****        -9.0000  -7.7500  16.2500 Du        
  10813 ****        -9.0000  -7.7500  16.5000 Du        
  10814 ****        -9.0000  -7.7500  16.7500 Du        
  10815 ****        -9.0000  -7.7500  17.0000 Du        
  10816 ****        -9.0000  -7.7500  17.2500 Du        
  10817 ****        -9.0000  -7.7500  17.5000 Du        
  10818 ****        -9.0000  -7.7500  17.7500 Du        
  10819 ****        -9.0000  -7.7500  18.0000 Du        
  10820 ****        -9.0000  -7.7500  18.2500 Du        
  10821 ****        -9.0000  -7.7500  18.5000 Du        
  10822 ****        -9.0000  -7.7500  18.7500 Du        
  10823 ****        -9.0000  -7.7500  19.0000 Du        
  10824 ****        -9.0000  -7.7500  19.2500 Du        
  10825 ****        -9.0000  -7.7500  19.5000 Du        
  10826 ****        -9.0000  -7.7500  19.7500 Du        
  10827 ****        -9.0000  -7.7500  20.0000 Du        
  10828 ****        -9.0000  -7.5000  16.0000 Du        
  10829 ****        -9.0000  -7.5000  16.2500 Du        
  10830 ****        -9.0000  -7.5000  16.5000 Du        
  10831 ****        -9.0000  -7.5000  16.7500 Du        
  10832 ****        -9.0000  -7.5000  17.0000 Du        
  10833 ****        -9.0000  -7.5000  17.2500 Du        
  10834 ****        -9.0000  -7.5000  17.5000 Du        
  10835 ****        -9.0000  -7.5000  17.7500 Du        
  10836 ****        -9.0000  -7.5000  18.0000 Du        
  10837 ****        -9.0000  -7.5000  18.2500 Du        
  10838 ****        -9.0000  -7.5000  18.5000 Du        
  10839 ****        -9.0000  -7.5000  18.7500 Du        
  10840 ****        -9.0000  -7.5000  19.0000 Du        
  10841 ****        -9.0000  -7.5000  19.2500 Du        
  10842 ****        -9.0000  -7.5000  19.5000 Du        
  10843 ****        -9.0000  -7.5000  19.7500 Du        
  10844 ****        -9.0000  -7.2500  16.0000 Du        
  10845 ****        -9.0000  -7.2500  16.2500 Du        
  10846 ****        -9.0000  -7.2500  16.5000 Du        
  10847 ****        -9.0000  -7.2500  16.7500 Du        
  10848 ****        -9.0000  -7.2500  17.0000 Du        
  10849 ****        -9.0000  -7.2500  17.2500 Du        
  10850 ****        -9.0000  -7.2500  17.5000 Du        
  10851 ****        -9.0000  -7.2500  17.7500 Du        
  10852 ****        -9.0000  -7.2500  18.0000 Du        
  10853 ****        -9.0000  -7.2500  18.2500 Du        
  10854 ****        -9.0000  -7.2500  18.5000 Du        
  10855 ****        -9.0000  -7.2500  18.7500 Du        
  10856 ****        -9.0000  -7.2500  19.0000 Du        
  10857 ****        -9.0000  -7.2500  19.2500 Du        
  10858 ****        -9.0000  -7.2500  19.5000 Du        
  10859 ****        -9.0000  -7.2500  19.7500 Du        
  10860 ****        -9.0000  -7.0000  16.0000 Du        
  10861 ****        -9.0000  -7.0000  16.2500 Du        
  10862 ****        -9.0000  -7.0000  16.5000 Du        
  10863 ****        -9.0000  -7.0000  16.7500 Du        
  10864 ****        -9.0000  -7.0000  17.0000 Du        
  10865 ****        -9.0000  -7.0000  17.2500 Du        
  10866 ****        -9.0000  -7.0000  17.5000 Du        
  10867 ****        -9.0000  -7.0000  17.7500 Du        
  10868 ****        -9.0000  -7.0000  18.0000 Du        
  10869 ****        -9.0000  -7.0000  18.2500 Du        
  10870 ****        -9.0000  -7.0000  18.5000 Du        
  10871 ****        -9.0000  -7.0000  18.7500 Du        
  10872 ****        -9.0000  -7.0000  19.0000 Du        
  10873 ****        -9.0000  -7.0000  19.2500 Du        
  10874 ****        -9.0000  -7.0000  19.5000 Du        
  10875 ****        -9.0000  -7.0000  19.7500 Du        
  10876 ****        -9.0000  -6.7500  16.0000 Du        
  10877 ****        -9.0000  -6.7500  16.2500 Du        
  10878 ****        -9.0000  -6.7500  16.5000 Du        
  10879 ****        -9.0000  -6.7500  16.7500 Du        
  10880 ****        -9.0000  -6.7500  17.0000 Du        
  10881 ****        -9.0000  -6.7500  17.2500 Du        
  10882 ****        -9.0000  -6.7500  17.5000 Du        
  10883 ****        -9.0000  -6.7500  17.7500 Du        
  10884 ****        -9.0000  -6.7500  18.0000 Du        
  10885 ****        -9.0000  -6.7500  18.2500 Du        
  10886 ****        -9.0000  -6.7500  18.5000 Du        
  10887 ****        -9.0000  -6.7500  18.7500 Du        
  10888 ****        -9.0000  -6.7500  19.0000 Du        
  10889 ****        -9.0000  -6.7500  19.2500 Du        
  10890 ****        -9.0000  -6.7500  19.5000 Du        
  10891 ****        -9.0000  -6.7500  19.7500 Du        
  10892 ****        -9.0000  -6.5000  16.0000 Du        
  10893 ****        -9.0000  -6.5000  16.2500 Du        
  10894 ****        -9.0000  -6.5000  16.5000 Du        
  10895 ****        -9.0000  -6.5000  16.7500 Du        
  10896 ****        -9.0000  -6.5000  17.0000 Du        
  10897 ****        -9.0000  -6.5000  17.2500 Du        
  10898 ****        -9.0000  -6.5000  17.5000 Du        
  10899 ****        -9.0000  -6.5000  17.7500 Du        
  10900 ****        -9.0000  -6.5000  18.0000 Du        
  10901 ****        -9.0000  -6.5000  18.2500 Du        
  10902 ****        -9.0000  -6.5000  18.5000 Du        
  10903 ****        -9.0000  -6.5000  18.7500 Du        
  10904 ****        -9.0000  -6.5000  19.0000 Du        
  10905 ****        -9.0000  -6.5000  19.2500 Du        
  10906 ****        -9.0000  -6.5000  19.5000 Du        
  10907 ****        -9.0000  -6.2500  16.0000 Du        
  10908 ****        -9.0000  -6.2500  16.2500 Du        
  10909 ****        -9.0000  -6.2500  16.5000 Du        
  10910 ****        -9.0000  -6.2500  16.7500 Du        
  10911 ****        -9.0000  -6.2500  17.0000 Du        
  10912 ****        -9.0000  -6.2500  17.2500 Du        
  10913 ****        -9.0000  -6.2500  17.5000 Du        
  10914 ****        -9.0000  -6.2500  17.7500 Du        
  10915 ****        -9.0000  -6.2500  18.0000 Du        
  10916 ****        -9.0000  -6.2500  18.2500 Du        
  10917 ****        -9.0000  -6.2500  18.5000 Du        
  10918 ****        -9.0000  -6.2500  18.7500 Du        
  10919 ****        -9.0000  -6.2500  19.0000 Du        
  10920 ****        -9.0000  -6.2500  19.2500 Du        
  10921 ****        -9.0000  -6.2500  19.5000 Du        
  10922 ****        -9.0000  -6.0000  16.7500 Du        
  10923 ****        -9.0000  -6.0000  17.0000 Du        
  10924 ****        -9.0000  -6.0000  17.2500 Du        
  10925 ****        -9.0000  -6.0000  17.5000 Du        
  10926 ****        -9.0000  -6.0000  17.7500 Du        
  10927 ****        -9.0000  -6.0000  18.0000 Du        
  10928 ****        -9.0000  -6.0000  18.2500 Du        
  10929 ****        -9.0000  -6.0000  18.5000 Du        
  10930 ****        -9.0000  -6.0000  18.7500 Du        
  10931 ****        -9.0000  -6.0000  19.0000 Du        
  10932 ****        -9.0000  -6.0000  19.2500 Du        
  10933 ****        -9.0000  -6.0000  19.5000 Du        
  10934 ****        -9.0000  -5.7500  17.2500 Du        
  10935 ****        -9.0000  -5.7500  17.7500 Du        
  10936 ****        -9.0000  -5.7500  18.0000 Du        
  10937 ****        -9.0000  -5.7500  18.2500 Du        
  10938 ****        -9.0000  -5.7500  18.5000 Du        
  10939 ****        -9.0000  -5.7500  18.7500 Du        
  10940 ****        -9.0000  -5.7500  19.0000 Du        
  10941 ****        -9.0000  -5.7500  19.2500 Du        
  10942 ****        -9.0000  -5.5000  18.5000 Du        
  10943 ****        -9.0000  -5.5000  18.7500 Du        
  10944 ****        -9.0000  -5.5000  19.0000 Du        
  10945 ****        -9.0000  -5.5000  19.2500 Du        
  10946 ****        -9.0000  -5.2500  18.7500 Du        
  10947 ****        -9.0000  -5.2500  19.0000 Du        
  10948 ****        -9.0000  -5.0000  19.0000 Du        
  10949 ****        -9.0000  -3.5000  23.7500 Du        
  10950 ****        -9.0000  -3.5000  24.0000 Du        
  10951 ****        -9.0000  -3.2500  23.0000 Du        
  10952 ****        -9.0000  -3.2500  23.2500 Du        
  10953 ****        -9.0000  -3.2500  23.5000 Du        
  10954 ****        -9.0000  -3.2500  23.7500 Du        
  10955 ****        -9.0000  -3.2500  24.0000 Du        
  10956 ****        -9.0000  -3.2500  24.2500 Du        
  10957 ****        -9.0000  -3.2500  24.5000 Du        
  10958 ****        -9.0000  -3.0000  22.7500 Du        
  10959 ****        -9.0000  -3.0000  23.0000 Du        
  10960 ****        -9.0000  -3.0000  23.2500 Du        
  10961 ****        -9.0000  -3.0000  23.5000 Du        
  10962 ****        -9.0000  -3.0000  23.7500 Du        
  10963 ****        -9.0000  -3.0000  24.0000 Du        
  10964 ****        -9.0000  -3.0000  24.2500 Du        
  10965 ****        -9.0000  -3.0000  24.5000 Du        
  10966 ****        -9.0000  -3.0000  24.7500 Du        
  10967 ****        -9.0000  -2.7500  22.5000 Du        
  10968 ****        -9.0000  -2.7500  22.7500 Du        
  10969 ****        -9.0000  -2.7500  23.0000 Du        
  10970 ****        -9.0000  -2.7500  23.2500 Du        
  10971 ****        -9.0000  -2.7500  23.5000 Du        
  10972 ****        -9.0000  -2.7500  23.7500 Du        
  10973 ****        -9.0000  -2.7500  24.0000 Du        
  10974 ****        -9.0000  -2.7500  24.2500 Du        
  10975 ****        -9.0000  -2.7500  24.5000 Du        
  10976 ****        -9.0000  -2.7500  24.7500 Du        
  10977 ****        -9.0000  -2.7500  25.0000 Du        
  10978 ****        -9.0000  -2.5000  22.2500 Du        
  10979 ****        -9.0000  -2.5000  22.5000 Du        
  10980 ****        -9.0000  -2.5000  22.7500 Du        
  10981 ****        -9.0000  -2.5000  23.0000 Du        
  10982 ****        -9.0000  -2.5000  23.2500 Du        
  10983 ****        -9.0000  -2.5000  23.5000 Du        
  10984 ****        -9.0000  -2.5000  23.7500 Du        
  10985 ****        -9.0000  -2.5000  24.0000 Du        
  10986 ****        -9.0000  -2.5000  24.2500 Du        
  10987 ****        -9.0000  -2.5000  24.5000 Du        
  10988 ****        -9.0000  -2.5000  24.7500 Du        
  10989 ****        -9.0000  -2.5000  25.0000 Du        
  10990 ****        -9.0000  -2.5000  25.2500 Du        
  10991 ****        -9.0000  -2.5000  25.5000 Du        
  10992 ****        -9.0000  -2.5000  25.7500 Du        
  10993 ****        -9.0000  -2.5000  27.0000 Du        
  10994 ****        -9.0000  -2.5000  27.2500 Du        
  10995 ****        -9.0000  -2.2500  22.0000 Du        
  10996 ****        -9.0000  -2.2500  22.2500 Du        
  10997 ****        -9.0000  -2.2500  22.5000 Du        
  10998 ****        -9.0000  -2.2500  22.7500 Du        
  10999 ****        -9.0000  -2.2500  23.0000 Du        
  11000 ****        -9.0000  -2.2500  23.2500 Du        
  11001 ****        -9.0000  -2.2500  23.5000 Du        
  11002 ****        -9.0000  -2.2500  23.7500 Du        
  11003 ****        -9.0000  -2.2500  24.0000 Du        
  11004 ****        -9.0000  -2.2500  24.2500 Du        
  11005 ****        -9.0000  -2.2500  24.5000 Du        
  11006 ****        -9.0000  -2.2500  24.7500 Du        
  11007 ****        -9.0000  -2.2500  25.0000 Du        
  11008 ****        -9.0000  -2.2500  25.2500 Du        
  11009 ****        -9.0000  -2.2500  25.5000 Du        
  11010 ****        -9.0000  -2.2500  25.7500 Du        
  11011 ****        -9.0000  -2.2500  26.0000 Du        
  11012 ****        -9.0000  -2.2500  26.2500 Du        
  11013 ****        -9.0000  -2.2500  26.5000 Du        
  11014 ****        -9.0000  -2.2500  26.7500 Du        
  11015 ****        -9.0000  -2.2500  27.0000 Du        
  11016 ****        -9.0000  -2.2500  27.2500 Du        
  11017 ****        -9.0000  -2.2500  27.5000 Du        
  11018 ****        -9.0000  -2.2500  27.7500 Du        
  11019 ****        -9.0000  -2.0000  22.0000 Du        
  11020 ****        -9.0000  -2.0000  22.2500 Du        
  11021 ****        -9.0000  -2.0000  22.5000 Du        
  11022 ****        -9.0000  -2.0000  22.7500 Du        
  11023 ****        -9.0000  -2.0000  23.0000 Du        
  11024 ****        -9.0000  -2.0000  23.2500 Du        
  11025 ****        -9.0000  -2.0000  23.5000 Du        
  11026 ****        -9.0000  -2.0000  23.7500 Du        
  11027 ****        -9.0000  -2.0000  24.0000 Du        
  11028 ****        -9.0000  -2.0000  24.2500 Du        
  11029 ****        -9.0000  -2.0000  24.5000 Du        
  11030 ****        -9.0000  -2.0000  24.7500 Du        
  11031 ****        -9.0000  -2.0000  25.0000 Du        
  11032 ****        -9.0000  -2.0000  25.2500 Du        
  11033 ****        -9.0000  -2.0000  25.5000 Du        
  11034 ****        -9.0000  -2.0000  25.7500 Du        
  11035 ****        -9.0000  -2.0000  26.0000 Du        
  11036 ****        -9.0000  -2.0000  26.2500 Du        
  11037 ****        -9.0000  -2.0000  26.5000 Du        
  11038 ****        -9.0000  -2.0000  26.7500 Du        
  11039 ****        -9.0000  -2.0000  27.0000 Du        
  11040 ****        -9.0000  -2.0000  27.2500 Du        
  11041 ****        -9.0000  -2.0000  27.5000 Du        
  11042 ****        -9.0000  -2.0000  27.7500 Du        
  11043 ****        -9.0000  -1.7500  22.2500 Du        
  11044 ****        -9.0000  -1.7500  22.5000 Du        
  11045 ****        -9.0000  -1.7500  22.7500 Du        
  11046 ****        -9.0000  -1.7500  23.0000 Du        
  11047 ****        -9.0000  -1.7500  23.2500 Du        
  11048 ****        -9.0000  -1.7500  23.5000 Du        
  11049 ****        -9.0000  -1.7500  23.7500 Du        
  11050 ****        -9.0000  -1.7500  24.0000 Du        
  11051 ****        -9.0000  -1.7500  24.2500 Du        
  11052 ****        -9.0000  -1.7500  24.5000 Du        
  11053 ****        -9.0000  -1.7500  24.7500 Du        
  11054 ****        -9.0000  -1.7500  25.0000 Du        
  11055 ****        -9.0000  -1.7500  25.2500 Du        
  11056 ****        -9.0000  -1.7500  25.5000 Du        
  11057 ****        -9.0000  -1.7500  25.7500 Du        
  11058 ****        -9.0000  -1.7500  26.0000 Du        
  11059 ****        -9.0000  -1.7500  26.2500 Du        
  11060 ****        -9.0000  -1.7500  26.5000 Du        
  11061 ****        -9.0000  -1.7500  26.7500 Du        
  11062 ****        -9.0000  -1.7500  27.0000 Du        
  11063 ****        -9.0000  -1.7500  27.2500 Du        
  11064 ****        -9.0000  -1.7500  27.5000 Du        
  11065 ****        -9.0000  -1.7500  27.7500 Du        
  11066 ****        -9.0000  -1.7500  28.0000 Du        
  11067 ****        -9.0000  -1.5000  22.5000 Du        
  11068 ****        -9.0000  -1.5000  22.7500 Du        
  11069 ****        -9.0000  -1.5000  23.0000 Du        
  11070 ****        -9.0000  -1.5000  23.2500 Du        
  11071 ****        -9.0000  -1.5000  23.5000 Du        
  11072 ****        -9.0000  -1.5000  23.7500 Du        
  11073 ****        -9.0000  -1.5000  24.0000 Du        
  11074 ****        -9.0000  -1.5000  24.2500 Du        
  11075 ****        -9.0000  -1.5000  24.5000 Du        
  11076 ****        -9.0000  -1.5000  24.7500 Du        
  11077 ****        -9.0000  -1.5000  25.0000 Du        
  11078 ****        -9.0000  -1.5000  25.2500 Du        
  11079 ****        -9.0000  -1.5000  25.5000 Du        
  11080 ****        -9.0000  -1.5000  25.7500 Du        
  11081 ****        -9.0000  -1.5000  26.0000 Du        
  11082 ****        -9.0000  -1.5000  26.2500 Du        
  11083 ****        -9.0000  -1.5000  26.5000 Du        
  11084 ****        -9.0000  -1.5000  26.7500 Du        
  11085 ****        -9.0000  -1.5000  27.0000 Du        
  11086 ****        -9.0000  -1.5000  27.2500 Du        
  11087 ****        -9.0000  -1.5000  27.5000 Du        
  11088 ****        -9.0000  -1.5000  27.7500 Du        
  11089 ****        -9.0000  -1.2500  22.7500 Du        
  11090 ****        -9.0000  -1.2500  23.0000 Du        
  11091 ****        -9.0000  -1.2500  23.2500 Du        
  11092 ****        -9.0000  -1.2500  23.5000 Du        
  11093 ****        -9.0000  -1.2500  23.7500 Du        
  11094 ****        -9.0000  -1.2500  24.0000 Du        
  11095 ****        -9.0000  -1.2500  24.2500 Du        
  11096 ****        -9.0000  -1.2500  24.5000 Du        
  11097 ****        -9.0000  -1.2500  24.7500 Du        
  11098 ****        -9.0000  -1.2500  25.0000 Du        
  11099 ****        -9.0000  -1.2500  25.2500 Du        
  11100 ****        -9.0000  -1.2500  25.5000 Du        
  11101 ****        -9.0000  -1.2500  25.7500 Du        
  11102 ****        -9.0000  -1.2500  26.0000 Du        
  11103 ****        -9.0000  -1.2500  26.2500 Du        
  11104 ****        -9.0000  -1.2500  26.5000 Du        
  11105 ****        -9.0000  -1.2500  26.7500 Du        
  11106 ****        -9.0000  -1.2500  27.0000 Du        
  11107 ****        -9.0000  -1.2500  27.2500 Du        
  11108 ****        -9.0000  -1.2500  27.5000 Du        
  11109 ****        -9.0000  -1.0000  23.0000 Du        
  11110 ****        -9.0000  -1.0000  23.2500 Du        
  11111 ****        -9.0000  -1.0000  23.5000 Du        
  11112 ****        -9.0000  -1.0000  23.7500 Du        
  11113 ****        -9.0000  -1.0000  24.0000 Du        
  11114 ****        -9.0000  -1.0000  24.2500 Du        
  11115 ****        -9.0000  -1.0000  24.5000 Du        
  11116 ****        -9.0000  -1.0000  24.7500 Du        
  11117 ****        -9.0000  -1.0000  25.0000 Du        
  11118 ****        -9.0000  -1.0000  25.2500 Du        
  11119 ****        -9.0000  -1.0000  25.5000 Du        
  11120 ****        -9.0000  -1.0000  25.7500 Du        
  11121 ****        -9.0000  -1.0000  26.0000 Du        
  11122 ****        -9.0000  -1.0000  26.2500 Du        
  11123 ****        -9.0000  -1.0000  26.5000 Du        
  11124 ****        -9.0000  -1.0000  26.7500 Du        
  11125 ****        -9.0000  -0.7500  23.2500 Du        
  11126 ****        -9.0000  -0.7500  23.5000 Du        
  11127 ****        -9.0000  -0.7500  23.7500 Du        
  11128 ****        -9.0000  -0.7500  24.0000 Du        
  11129 ****        -9.0000  -0.7500  24.2500 Du        
  11130 ****        -9.0000  -0.7500  24.5000 Du        
  11131 ****        -9.0000  -0.7500  24.7500 Du        
  11132 ****        -9.0000  -0.7500  25.0000 Du        
  11133 ****        -9.0000  -0.7500  25.2500 Du        
  11134 ****        -9.0000  -0.7500  25.5000 Du        
  11135 ****        -9.0000  -0.7500  25.7500 Du        
  11136 ****        -9.0000  -0.7500  26.0000 Du        
  11137 ****        -9.0000  -0.5000  23.5000 Du        
  11138 ****        -9.0000  -0.5000  23.7500 Du        
  11139 ****        -9.0000  -0.5000  24.0000 Du        
  11140 ****        -9.0000  -0.5000  24.2500 Du        
  11141 ****        -9.0000  -0.5000  24.5000 Du        
  11142 ****        -9.0000  -0.5000  24.7500 Du        
  11143 ****        -9.0000  -0.5000  25.0000 Du        
  11144 ****        -9.0000  -0.5000  25.2500 Du        
  11145 ****        -9.0000  -0.5000  25.5000 Du        
  11146 ****        -9.0000  -0.5000  25.7500 Du        
  11147 ****        -9.0000  -0.2500  23.5000 Du        
  11148 ****        -9.0000  -0.2500  23.7500 Du        
  11149 ****        -9.0000  -0.2500  24.0000 Du        
  11150 ****        -9.0000  -0.2500  24.2500 Du        
  11151 ****        -9.0000  -0.2500  24.5000 Du        
  11152 ****        -9.0000  -0.2500  24.7500 Du        
  11153 ****        -9.0000  -0.2500  25.0000 Du        
  11154 ****        -9.0000  -0.2500  25.2500 Du        
  11155 ****        -9.0000  -0.2500  25.5000 Du        
  11156 ****        -9.0000   0.0000  23.7500 Du        
  11157 ****        -9.0000   0.0000  24.0000 Du        
  11158 ****        -9.0000   0.0000  24.2500 Du        
  11159 ****        -9.0000   0.0000  24.5000 Du        
  11160 ****        -9.0000   0.0000  24.7500 Du        
  11161 ****        -9.0000   0.0000  25.0000 Du        
  11162 ****        -9.0000   0.0000  25.2500 Du        
  11163 ****        -9.0000   0.0000  25.5000 Du        
  11164 ****        -9.0000   0.2500  23.7500 Du        
  11165 ****        -9.0000   0.2500  24.0000 Du        
  11166 ****        -9.0000   0.2500  24.2500 Du        
  11167 ****        -9.0000   0.2500  24.5000 Du        
  11168 ****        -9.0000   0.2500  24.7500 Du        
  11169 ****        -9.0000   0.2500  25.0000 Du        
  11170 ****        -9.0000   0.2500  25.2500 Du        
  11171 ****        -9.0000   0.5000  24.0000 Du        
  11172 ****        -9.0000   0.5000  24.2500 Du        
  11173 ****        -9.0000   0.5000  24.5000 Du        
  11174 ****        -9.0000   0.5000  24.7500 Du        
  11175 ****        -9.0000   0.5000  25.0000 Du        
  11176 ****        -9.0000   0.7500  24.0000 Du        
  11177 ****        -9.0000   0.7500  24.2500 Du        
  11178 ****        -9.0000   0.7500  24.5000 Du        
  11179 ****        -9.0000   0.7500  24.7500 Du        
  11180 ****        -9.0000   0.7500  25.0000 Du        
  11181 ****        -9.0000   0.7500  25.2500 Du        
  11182 ****        -9.0000   1.0000  24.0000 Du        
  11183 ****        -9.0000   1.0000  24.2500 Du        
  11184 ****        -9.0000   1.0000  24.5000 Du        
  11185 ****        -9.0000   1.0000  24.7500 Du        
  11186 ****        -9.0000   1.0000  25.0000 Du        
  11187 ****        -9.0000   1.0000  25.2500 Du        
  11188 ****        -9.0000   1.2500  24.0000 Du        
  11189 ****        -9.0000   1.2500  24.2500 Du        
  11190 ****        -9.0000   1.2500  24.5000 Du        
  11191 ****        -9.0000   1.2500  24.7500 Du        
  11192 ****        -9.0000   1.2500  25.0000 Du        
  11193 ****        -9.0000   1.2500  25.2500 Du        
  11194 ****        -9.0000   1.5000  24.0000 Du        
  11195 ****        -9.0000   1.5000  24.2500 Du        
  11196 ****        -9.0000   1.5000  24.5000 Du        
  11197 ****        -9.0000   1.5000  24.7500 Du        
  11198 ****        -9.0000   1.5000  25.0000 Du        
  11199 ****        -9.0000   1.5000  25.2500 Du        
  11200 ****        -9.0000   1.5000  25.5000 Du        
  11201 ****        -9.0000   1.7500  24.0000 Du        
  11202 ****        -9.0000   1.7500  24.2500 Du        
  11203 ****        -9.0000   1.7500  24.5000 Du        
  11204 ****        -9.0000   1.7500  24.7500 Du        
  11205 ****        -9.0000   1.7500  25.0000 Du        
  11206 ****        -9.0000   1.7500  25.2500 Du        
  11207 ****        -9.0000   1.7500  25.5000 Du        
  11208 ****        -9.0000   2.0000  24.2500 Du        
  11209 ****        -9.0000   2.0000  24.5000 Du        
  11210 ****        -9.0000   2.0000  24.7500 Du        
  11211 ****        -9.0000   2.0000  25.0000 Du        
  11212 ****        -9.0000   2.0000  25.2500 Du        
  11213 ****        -9.0000   2.0000  25.5000 Du        
  11214 ****        -9.0000   2.0000  25.7500 Du        
  11215 ****        -9.0000   2.2500  24.2500 Du        
  11216 ****        -9.0000   2.2500  24.5000 Du        
  11217 ****        -9.0000   2.2500  24.7500 Du        
  11218 ****        -9.0000   2.2500  25.0000 Du        
  11219 ****        -9.0000   2.2500  25.2500 Du        
  11220 ****        -9.0000   2.2500  25.5000 Du        
  11221 ****        -9.0000   2.2500  25.7500 Du        
  11222 ****        -9.0000   2.5000  24.2500 Du        
  11223 ****        -9.0000   2.5000  24.5000 Du        
  11224 ****        -9.0000   2.5000  24.7500 Du        
  11225 ****        -9.0000   2.5000  25.0000 Du        
  11226 ****        -9.0000   2.5000  25.2500 Du        
  11227 ****        -9.0000   2.5000  25.5000 Du        
  11228 ****        -9.0000   2.5000  25.7500 Du        
  11229 ****        -9.0000   2.7500  24.2500 Du        
  11230 ****        -9.0000   2.7500  24.5000 Du        
  11231 ****        -9.0000   2.7500  24.7500 Du        
  11232 ****        -9.0000   2.7500  25.0000 Du        
  11233 ****        -9.0000   2.7500  25.2500 Du        
  11234 ****        -9.0000   2.7500  25.5000 Du        
  11235 ****        -9.0000   2.7500  25.7500 Du        
  11236 ****        -9.0000   2.7500  26.0000 Du        
  11237 ****        -9.0000   3.0000  24.5000 Du        
  11238 ****        -9.0000   3.0000  24.7500 Du        
  11239 ****        -9.0000   3.0000  25.0000 Du        
  11240 ****        -9.0000   3.0000  25.2500 Du        
  11241 ****        -9.0000   3.0000  25.5000 Du        
  11242 ****        -9.0000   3.0000  25.7500 Du        
  11243 ****        -9.0000   3.0000  26.0000 Du        
  11244 ****        -9.0000   3.2500  24.5000 Du        
  11245 ****        -9.0000   3.2500  24.7500 Du        
  11246 ****        -9.0000   3.2500  25.0000 Du        
  11247 ****        -9.0000   3.2500  25.2500 Du        
  11248 ****        -9.0000   3.2500  25.5000 Du        
  11249 ****        -9.0000   3.2500  25.7500 Du        
  11250 ****        -9.0000   3.2500  26.0000 Du        
  11251 ****        -9.0000   3.5000  24.7500 Du        
  11252 ****        -9.0000   3.5000  25.0000 Du        
  11253 ****        -9.0000   3.5000  25.2500 Du        
  11254 ****        -9.0000   3.5000  25.5000 Du        
  11255 ****        -9.0000   3.5000  25.7500 Du        
  11256 ****        -9.0000   3.5000  26.0000 Du        
  11257 ****        -9.0000   3.7500  25.0000 Du        
  11258 ****        -9.0000   3.7500  25.2500 Du        
  11259 ****        -9.0000   3.7500  25.5000 Du        
  11260 ****        -9.0000   3.7500  25.7500 Du        
  11261 ****        -9.0000   3.7500  26.0000 Du        
  11262 ****        -9.0000   4.0000  25.0000 Du        
  11263 ****        -9.0000   4.0000  25.2500 Du        
  11264 ****        -9.0000   4.0000  25.5000 Du        
  11265 ****        -9.0000   4.0000  25.7500 Du        
  11266 ****        -9.0000   4.0000  26.0000 Du        
  11267 ****        -9.0000   4.0000  26.2500 Du        
  11268 ****        -9.0000   4.2500  25.5000 Du        
  11269 ****        -9.0000   4.2500  25.7500 Du        
  11270 ****        -9.0000   4.2500  26.0000 Du        
  11271 ****        -8.7500 -14.0000  15.0000 Du        
  11272 ****        -8.7500 -14.0000  15.2500 Du        
  11273 ****        -8.7500 -14.0000  15.5000 Du        
  11274 ****        -8.7500 -14.0000  15.7500 Du        
  11275 ****        -8.7500 -14.0000  16.0000 Du        
  11276 ****        -8.7500 -14.0000  16.2500 Du        
  11277 ****        -8.7500 -14.0000  16.5000 Du        
  11278 ****        -8.7500 -14.0000  16.7500 Du        
  11279 ****        -8.7500 -14.0000  17.0000 Du        
  11280 ****        -8.7500 -14.0000  17.2500 Du        
  11281 ****        -8.7500 -14.0000  17.5000 Du        
  11282 ****        -8.7500 -14.0000  17.7500 Du        
  11283 ****        -8.7500 -14.0000  18.0000 Du        
  11284 ****        -8.7500 -14.0000  18.2500 Du        
  11285 ****        -8.7500 -14.0000  18.5000 Du        
  11286 ****        -8.7500 -14.0000  18.7500 Du        
  11287 ****        -8.7500 -14.0000  19.0000 Du        
  11288 ****        -8.7500 -14.0000  19.2500 Du        
  11289 ****        -8.7500 -13.7500  15.0000 Du        
  11290 ****        -8.7500 -13.7500  15.2500 Du        
  11291 ****        -8.7500 -13.7500  15.5000 Du        
  11292 ****        -8.7500 -13.7500  15.7500 Du        
  11293 ****        -8.7500 -13.7500  16.0000 Du        
  11294 ****        -8.7500 -13.7500  16.2500 Du        
  11295 ****        -8.7500 -13.7500  16.5000 Du        
  11296 ****        -8.7500 -13.7500  16.7500 Du        
  11297 ****        -8.7500 -13.7500  17.0000 Du        
  11298 ****        -8.7500 -13.7500  17.2500 Du        
  11299 ****        -8.7500 -13.7500  17.5000 Du        
  11300 ****        -8.7500 -13.7500  17.7500 Du        
  11301 ****        -8.7500 -13.7500  18.0000 Du        
  11302 ****        -8.7500 -13.7500  18.2500 Du        
  11303 ****        -8.7500 -13.7500  18.5000 Du        
  11304 ****        -8.7500 -13.7500  18.7500 Du        
  11305 ****        -8.7500 -13.7500  19.0000 Du        
  11306 ****        -8.7500 -13.7500  19.2500 Du        
  11307 ****        -8.7500 -13.5000  14.7500 Du        
  11308 ****        -8.7500 -13.5000  15.0000 Du        
  11309 ****        -8.7500 -13.5000  15.2500 Du        
  11310 ****        -8.7500 -13.5000  15.5000 Du        
  11311 ****        -8.7500 -13.5000  15.7500 Du        
  11312 ****        -8.7500 -13.5000  16.0000 Du        
  11313 ****        -8.7500 -13.5000  16.2500 Du        
  11314 ****        -8.7500 -13.5000  16.5000 Du        
  11315 ****        -8.7500 -13.5000  16.7500 Du        
  11316 ****        -8.7500 -13.5000  17.0000 Du        
  11317 ****        -8.7500 -13.5000  17.2500 Du        
  11318 ****        -8.7500 -13.5000  17.5000 Du        
  11319 ****        -8.7500 -13.5000  17.7500 Du        
  11320 ****        -8.7500 -13.5000  18.0000 Du        
  11321 ****        -8.7500 -13.5000  18.2500 Du        
  11322 ****        -8.7500 -13.5000  18.5000 Du        
  11323 ****        -8.7500 -13.5000  18.7500 Du        
  11324 ****        -8.7500 -13.5000  19.0000 Du        
  11325 ****        -8.7500 -13.5000  19.2500 Du        
  11326 ****        -8.7500 -13.2500  14.7500 Du        
  11327 ****        -8.7500 -13.2500  15.0000 Du        
  11328 ****        -8.7500 -13.2500  15.2500 Du        
  11329 ****        -8.7500 -13.2500  15.5000 Du        
  11330 ****        -8.7500 -13.2500  15.7500 Du        
  11331 ****        -8.7500 -13.2500  16.0000 Du        
  11332 ****        -8.7500 -13.2500  16.2500 Du        
  11333 ****        -8.7500 -13.2500  16.5000 Du        
  11334 ****        -8.7500 -13.2500  16.7500 Du        
  11335 ****        -8.7500 -13.2500  17.0000 Du        
  11336 ****        -8.7500 -13.2500  17.2500 Du        
  11337 ****        -8.7500 -13.2500  17.5000 Du        
  11338 ****        -8.7500 -13.2500  17.7500 Du        
  11339 ****        -8.7500 -13.2500  18.0000 Du        
  11340 ****        -8.7500 -13.2500  18.2500 Du        
  11341 ****        -8.7500 -13.2500  18.5000 Du        
  11342 ****        -8.7500 -13.2500  18.7500 Du        
  11343 ****        -8.7500 -13.2500  19.0000 Du        
  11344 ****        -8.7500 -13.2500  19.2500 Du        
  11345 ****        -8.7500 -13.0000  14.7500 Du        
  11346 ****        -8.7500 -13.0000  15.0000 Du        
  11347 ****        -8.7500 -13.0000  15.2500 Du        
  11348 ****        -8.7500 -13.0000  15.5000 Du        
  11349 ****        -8.7500 -13.0000  15.7500 Du        
  11350 ****        -8.7500 -13.0000  16.0000 Du        
  11351 ****        -8.7500 -13.0000  16.2500 Du        
  11352 ****        -8.7500 -13.0000  16.5000 Du        
  11353 ****        -8.7500 -13.0000  16.7500 Du        
  11354 ****        -8.7500 -13.0000  17.0000 Du        
  11355 ****        -8.7500 -13.0000  17.2500 Du        
  11356 ****        -8.7500 -13.0000  17.5000 Du        
  11357 ****        -8.7500 -13.0000  17.7500 Du        
  11358 ****        -8.7500 -13.0000  18.0000 Du        
  11359 ****        -8.7500 -13.0000  18.2500 Du        
  11360 ****        -8.7500 -13.0000  18.5000 Du        
  11361 ****        -8.7500 -13.0000  18.7500 Du        
  11362 ****        -8.7500 -13.0000  19.0000 Du        
  11363 ****        -8.7500 -13.0000  19.2500 Du        
  11364 ****        -8.7500 -12.7500  14.7500 Du        
  11365 ****        -8.7500 -12.7500  15.0000 Du        
  11366 ****        -8.7500 -12.7500  15.2500 Du        
  11367 ****        -8.7500 -12.7500  15.5000 Du        
  11368 ****        -8.7500 -12.7500  15.7500 Du        
  11369 ****        -8.7500 -12.7500  16.0000 Du        
  11370 ****        -8.7500 -12.7500  16.2500 Du        
  11371 ****        -8.7500 -12.7500  16.5000 Du        
  11372 ****        -8.7500 -12.7500  16.7500 Du        
  11373 ****        -8.7500 -12.7500  17.0000 Du        
  11374 ****        -8.7500 -12.7500  17.2500 Du        
  11375 ****        -8.7500 -12.7500  17.5000 Du        
  11376 ****        -8.7500 -12.7500  17.7500 Du        
  11377 ****        -8.7500 -12.7500  18.0000 Du        
  11378 ****        -8.7500 -12.7500  18.2500 Du        
  11379 ****        -8.7500 -12.7500  18.5000 Du        
  11380 ****        -8.7500 -12.7500  18.7500 Du        
  11381 ****        -8.7500 -12.7500  19.0000 Du        
  11382 ****        -8.7500 -12.7500  19.2500 Du        
  11383 ****        -8.7500 -12.5000  14.7500 Du        
  11384 ****        -8.7500 -12.5000  15.0000 Du        
  11385 ****        -8.7500 -12.5000  15.2500 Du        
  11386 ****        -8.7500 -12.5000  15.5000 Du        
  11387 ****        -8.7500 -12.5000  15.7500 Du        
  11388 ****        -8.7500 -12.5000  16.0000 Du        
  11389 ****        -8.7500 -12.5000  16.2500 Du        
  11390 ****        -8.7500 -12.5000  16.5000 Du        
  11391 ****        -8.7500 -12.5000  16.7500 Du        
  11392 ****        -8.7500 -12.5000  17.0000 Du        
  11393 ****        -8.7500 -12.5000  17.2500 Du        
  11394 ****        -8.7500 -12.5000  17.5000 Du        
  11395 ****        -8.7500 -12.5000  17.7500 Du        
  11396 ****        -8.7500 -12.5000  18.0000 Du        
  11397 ****        -8.7500 -12.5000  18.2500 Du        
  11398 ****        -8.7500 -12.5000  18.5000 Du        
  11399 ****        -8.7500 -12.5000  18.7500 Du        
  11400 ****        -8.7500 -12.5000  19.0000 Du        
  11401 ****        -8.7500 -12.5000  19.2500 Du        
  11402 ****        -8.7500 -12.2500  14.7500 Du        
  11403 ****        -8.7500 -12.2500  15.0000 Du        
  11404 ****        -8.7500 -12.2500  15.2500 Du        
  11405 ****        -8.7500 -12.2500  15.5000 Du        
  11406 ****        -8.7500 -12.2500  15.7500 Du        
  11407 ****        -8.7500 -12.2500  16.0000 Du        
  11408 ****        -8.7500 -12.2500  16.2500 Du        
  11409 ****        -8.7500 -12.2500  16.5000 Du        
  11410 ****        -8.7500 -12.2500  16.7500 Du        
  11411 ****        -8.7500 -12.2500  17.0000 Du        
  11412 ****        -8.7500 -12.2500  17.2500 Du        
  11413 ****        -8.7500 -12.2500  17.5000 Du        
  11414 ****        -8.7500 -12.2500  17.7500 Du        
  11415 ****        -8.7500 -12.2500  18.0000 Du        
  11416 ****        -8.7500 -12.2500  18.2500 Du        
  11417 ****        -8.7500 -12.2500  18.5000 Du        
  11418 ****        -8.7500 -12.2500  18.7500 Du        
  11419 ****        -8.7500 -12.2500  19.0000 Du        
  11420 ****        -8.7500 -12.2500  19.2500 Du        
  11421 ****        -8.7500 -12.0000  14.7500 Du        
  11422 ****        -8.7500 -12.0000  15.0000 Du        
  11423 ****        -8.7500 -12.0000  15.2500 Du        
  11424 ****        -8.7500 -12.0000  15.5000 Du        
  11425 ****        -8.7500 -12.0000  15.7500 Du        
  11426 ****        -8.7500 -12.0000  16.0000 Du        
  11427 ****        -8.7500 -12.0000  16.2500 Du        
  11428 ****        -8.7500 -12.0000  16.5000 Du        
  11429 ****        -8.7500 -12.0000  16.7500 Du        
  11430 ****        -8.7500 -12.0000  17.0000 Du        
  11431 ****        -8.7500 -12.0000  17.2500 Du        
  11432 ****        -8.7500 -12.0000  17.5000 Du        
  11433 ****        -8.7500 -12.0000  17.7500 Du        
  11434 ****        -8.7500 -12.0000  18.0000 Du        
  11435 ****        -8.7500 -12.0000  18.2500 Du        
  11436 ****        -8.7500 -12.0000  18.5000 Du        
  11437 ****        -8.7500 -12.0000  18.7500 Du        
  11438 ****        -8.7500 -12.0000  19.0000 Du        
  11439 ****        -8.7500 -12.0000  19.2500 Du        
  11440 ****        -8.7500 -11.7500  14.7500 Du        
  11441 ****        -8.7500 -11.7500  15.0000 Du        
  11442 ****        -8.7500 -11.7500  15.2500 Du        
  11443 ****        -8.7500 -11.7500  15.5000 Du        
  11444 ****        -8.7500 -11.7500  15.7500 Du        
  11445 ****        -8.7500 -11.7500  16.0000 Du        
  11446 ****        -8.7500 -11.7500  16.2500 Du        
  11447 ****        -8.7500 -11.7500  16.5000 Du        
  11448 ****        -8.7500 -11.7500  16.7500 Du        
  11449 ****        -8.7500 -11.7500  17.0000 Du        
  11450 ****        -8.7500 -11.7500  17.2500 Du        
  11451 ****        -8.7500 -11.7500  17.5000 Du        
  11452 ****        -8.7500 -11.7500  17.7500 Du        
  11453 ****        -8.7500 -11.7500  18.0000 Du        
  11454 ****        -8.7500 -11.7500  18.2500 Du        
  11455 ****        -8.7500 -11.7500  18.5000 Du        
  11456 ****        -8.7500 -11.7500  18.7500 Du        
  11457 ****        -8.7500 -11.7500  19.0000 Du        
  11458 ****        -8.7500 -11.7500  19.2500 Du        
  11459 ****        -8.7500 -11.5000  14.7500 Du        
  11460 ****        -8.7500 -11.5000  15.0000 Du        
  11461 ****        -8.7500 -11.5000  15.2500 Du        
  11462 ****        -8.7500 -11.5000  15.5000 Du        
  11463 ****        -8.7500 -11.5000  15.7500 Du        
  11464 ****        -8.7500 -11.5000  16.0000 Du        
  11465 ****        -8.7500 -11.5000  16.2500 Du        
  11466 ****        -8.7500 -11.5000  16.5000 Du        
  11467 ****        -8.7500 -11.5000  16.7500 Du        
  11468 ****        -8.7500 -11.5000  17.0000 Du        
  11469 ****        -8.7500 -11.5000  17.2500 Du        
  11470 ****        -8.7500 -11.5000  17.5000 Du        
  11471 ****        -8.7500 -11.5000  17.7500 Du        
  11472 ****        -8.7500 -11.5000  18.0000 Du        
  11473 ****        -8.7500 -11.5000  18.2500 Du        
  11474 ****        -8.7500 -11.5000  18.5000 Du        
  11475 ****        -8.7500 -11.5000  18.7500 Du        
  11476 ****        -8.7500 -11.5000  19.0000 Du        
  11477 ****        -8.7500 -11.5000  19.2500 Du        
  11478 ****        -8.7500 -11.2500  14.7500 Du        
  11479 ****        -8.7500 -11.2500  15.0000 Du        
  11480 ****        -8.7500 -11.2500  15.2500 Du        
  11481 ****        -8.7500 -11.2500  15.5000 Du        
  11482 ****        -8.7500 -11.2500  15.7500 Du        
  11483 ****        -8.7500 -11.2500  16.0000 Du        
  11484 ****        -8.7500 -11.2500  16.2500 Du        
  11485 ****        -8.7500 -11.2500  16.5000 Du        
  11486 ****        -8.7500 -11.2500  16.7500 Du        
  11487 ****        -8.7500 -11.2500  17.0000 Du        
  11488 ****        -8.7500 -11.2500  17.2500 Du        
  11489 ****        -8.7500 -11.2500  17.5000 Du        
  11490 ****        -8.7500 -11.2500  17.7500 Du        
  11491 ****        -8.7500 -11.2500  18.0000 Du        
  11492 ****        -8.7500 -11.2500  18.2500 Du        
  11493 ****        -8.7500 -11.2500  18.5000 Du        
  11494 ****        -8.7500 -11.2500  18.7500 Du        
  11495 ****        -8.7500 -11.2500  19.0000 Du        
  11496 ****        -8.7500 -11.2500  19.2500 Du        
  11497 ****        -8.7500 -11.0000  14.7500 Du        
  11498 ****        -8.7500 -11.0000  15.0000 Du        
  11499 ****        -8.7500 -11.0000  15.2500 Du        
  11500 ****        -8.7500 -11.0000  15.5000 Du        
  11501 ****        -8.7500 -11.0000  15.7500 Du        
  11502 ****        -8.7500 -11.0000  16.0000 Du        
  11503 ****        -8.7500 -11.0000  16.2500 Du        
  11504 ****        -8.7500 -11.0000  16.5000 Du        
  11505 ****        -8.7500 -11.0000  16.7500 Du        
  11506 ****        -8.7500 -11.0000  17.0000 Du        
  11507 ****        -8.7500 -11.0000  17.2500 Du        
  11508 ****        -8.7500 -11.0000  17.5000 Du        
  11509 ****        -8.7500 -11.0000  17.7500 Du        
  11510 ****        -8.7500 -11.0000  18.0000 Du        
  11511 ****        -8.7500 -11.0000  18.2500 Du        
  11512 ****        -8.7500 -11.0000  18.5000 Du        
  11513 ****        -8.7500 -11.0000  18.7500 Du        
  11514 ****        -8.7500 -11.0000  19.0000 Du        
  11515 ****        -8.7500 -11.0000  19.2500 Du        
  11516 ****        -8.7500 -11.0000  23.5000 Du        
  11517 ****        -8.7500 -11.0000  23.7500 Du        
  11518 ****        -8.7500 -10.7500  14.5000 Du        
  11519 ****        -8.7500 -10.7500  14.7500 Du        
  11520 ****        -8.7500 -10.7500  15.0000 Du        
  11521 ****        -8.7500 -10.7500  15.2500 Du        
  11522 ****        -8.7500 -10.7500  15.5000 Du        
  11523 ****        -8.7500 -10.7500  15.7500 Du        
  11524 ****        -8.7500 -10.7500  16.0000 Du        
  11525 ****        -8.7500 -10.7500  16.2500 Du        
  11526 ****        -8.7500 -10.7500  17.7500 Du        
  11527 ****        -8.7500 -10.7500  18.0000 Du        
  11528 ****        -8.7500 -10.7500  18.2500 Du        
  11529 ****        -8.7500 -10.7500  18.5000 Du        
  11530 ****        -8.7500 -10.7500  18.7500 Du        
  11531 ****        -8.7500 -10.7500  19.0000 Du        
  11532 ****        -8.7500 -10.7500  19.2500 Du        
  11533 ****        -8.7500 -10.7500  19.5000 Du        
  11534 ****        -8.7500 -10.7500  23.2500 Du        
  11535 ****        -8.7500 -10.7500  23.5000 Du        
  11536 ****        -8.7500 -10.7500  23.7500 Du        
  11537 ****        -8.7500 -10.5000  14.5000 Du        
  11538 ****        -8.7500 -10.5000  14.7500 Du        
  11539 ****        -8.7500 -10.5000  15.0000 Du        
  11540 ****        -8.7500 -10.5000  15.2500 Du        
  11541 ****        -8.7500 -10.5000  15.5000 Du        
  11542 ****        -8.7500 -10.5000  15.7500 Du        
  11543 ****        -8.7500 -10.5000  16.0000 Du        
  11544 ****        -8.7500 -10.5000  18.2500 Du        
  11545 ****        -8.7500 -10.5000  18.5000 Du        
  11546 ****        -8.7500 -10.5000  18.7500 Du        
  11547 ****        -8.7500 -10.5000  19.0000 Du        
  11548 ****        -8.7500 -10.5000  19.2500 Du        
  11549 ****        -8.7500 -10.5000  19.5000 Du        
  11550 ****        -8.7500 -10.5000  19.7500 Du        
  11551 ****        -8.7500 -10.5000  23.2500 Du        
  11552 ****        -8.7500 -10.5000  23.5000 Du        
  11553 ****        -8.7500 -10.5000  23.7500 Du        
  11554 ****        -8.7500 -10.2500  14.2500 Du        
  11555 ****        -8.7500 -10.2500  14.5000 Du        
  11556 ****        -8.7500 -10.2500  14.7500 Du        
  11557 ****        -8.7500 -10.2500  15.0000 Du        
  11558 ****        -8.7500 -10.2500  15.2500 Du        
  11559 ****        -8.7500 -10.2500  15.5000 Du        
  11560 ****        -8.7500 -10.2500  15.7500 Du        
  11561 ****        -8.7500 -10.2500  18.5000 Du        
  11562 ****        -8.7500 -10.2500  18.7500 Du        
  11563 ****        -8.7500 -10.2500  19.0000 Du        
  11564 ****        -8.7500 -10.2500  19.2500 Du        
  11565 ****        -8.7500 -10.2500  19.5000 Du        
  11566 ****        -8.7500 -10.2500  19.7500 Du        
  11567 ****        -8.7500 -10.2500  20.0000 Du        
  11568 ****        -8.7500 -10.2500  20.2500 Du        
  11569 ****        -8.7500 -10.0000  14.0000 Du        
  11570 ****        -8.7500 -10.0000  14.2500 Du        
  11571 ****        -8.7500 -10.0000  14.5000 Du        
  11572 ****        -8.7500 -10.0000  14.7500 Du        
  11573 ****        -8.7500 -10.0000  15.0000 Du        
  11574 ****        -8.7500 -10.0000  15.2500 Du        
  11575 ****        -8.7500 -10.0000  15.5000 Du        
  11576 ****        -8.7500 -10.0000  18.7500 Du        
  11577 ****        -8.7500 -10.0000  19.0000 Du        
  11578 ****        -8.7500 -10.0000  19.2500 Du        
  11579 ****        -8.7500 -10.0000  19.5000 Du        
  11580 ****        -8.7500 -10.0000  19.7500 Du        
  11581 ****        -8.7500 -10.0000  20.0000 Du        
  11582 ****        -8.7500 -10.0000  20.2500 Du        
  11583 ****        -8.7500 -10.0000  20.5000 Du        
  11584 ****        -8.7500 -10.0000  20.7500 Du        
  11585 ****        -8.7500  -9.7500  14.0000 Du        
  11586 ****        -8.7500  -9.7500  14.2500 Du        
  11587 ****        -8.7500  -9.7500  14.5000 Du        
  11588 ****        -8.7500  -9.7500  14.7500 Du        
  11589 ****        -8.7500  -9.7500  15.0000 Du        
  11590 ****        -8.7500  -9.7500  15.2500 Du        
  11591 ****        -8.7500  -9.7500  15.5000 Du        
  11592 ****        -8.7500  -9.7500  19.0000 Du        
  11593 ****        -8.7500  -9.7500  19.2500 Du        
  11594 ****        -8.7500  -9.7500  19.5000 Du        
  11595 ****        -8.7500  -9.7500  19.7500 Du        
  11596 ****        -8.7500  -9.7500  20.0000 Du        
  11597 ****        -8.7500  -9.7500  20.2500 Du        
  11598 ****        -8.7500  -9.7500  20.5000 Du        
  11599 ****        -8.7500  -9.7500  20.7500 Du        
  11600 ****        -8.7500  -9.7500  21.0000 Du        
  11601 ****        -8.7500  -9.5000  14.0000 Du        
  11602 ****        -8.7500  -9.5000  14.2500 Du        
  11603 ****        -8.7500  -9.5000  14.5000 Du        
  11604 ****        -8.7500  -9.5000  14.7500 Du        
  11605 ****        -8.7500  -9.5000  15.0000 Du        
  11606 ****        -8.7500  -9.5000  15.2500 Du        
  11607 ****        -8.7500  -9.5000  19.0000 Du        
  11608 ****        -8.7500  -9.5000  19.2500 Du        
  11609 ****        -8.7500  -9.5000  19.5000 Du        
  11610 ****        -8.7500  -9.5000  19.7500 Du        
  11611 ****        -8.7500  -9.5000  20.0000 Du        
  11612 ****        -8.7500  -9.5000  20.2500 Du        
  11613 ****        -8.7500  -9.5000  20.5000 Du        
  11614 ****        -8.7500  -9.5000  20.7500 Du        
  11615 ****        -8.7500  -9.2500  14.0000 Du        
  11616 ****        -8.7500  -9.2500  14.2500 Du        
  11617 ****        -8.7500  -9.2500  14.5000 Du        
  11618 ****        -8.7500  -9.2500  14.7500 Du        
  11619 ****        -8.7500  -9.2500  15.0000 Du        
  11620 ****        -8.7500  -9.2500  15.2500 Du        
  11621 ****        -8.7500  -9.2500  19.0000 Du        
  11622 ****        -8.7500  -9.2500  19.2500 Du        
  11623 ****        -8.7500  -9.2500  19.5000 Du        
  11624 ****        -8.7500  -9.2500  19.7500 Du        
  11625 ****        -8.7500  -9.2500  20.0000 Du        
  11626 ****        -8.7500  -9.2500  20.2500 Du        
  11627 ****        -8.7500  -9.2500  20.5000 Du        
  11628 ****        -8.7500  -9.2500  20.7500 Du        
  11629 ****        -8.7500  -9.0000  14.7500 Du        
  11630 ****        -8.7500  -9.0000  15.0000 Du        
  11631 ****        -8.7500  -9.0000  15.2500 Du        
  11632 ****        -8.7500  -9.0000  19.0000 Du        
  11633 ****        -8.7500  -9.0000  19.2500 Du        
  11634 ****        -8.7500  -9.0000  19.5000 Du        
  11635 ****        -8.7500  -9.0000  19.7500 Du        
  11636 ****        -8.7500  -9.0000  20.0000 Du        
  11637 ****        -8.7500  -9.0000  20.2500 Du        
  11638 ****        -8.7500  -9.0000  20.5000 Du        
  11639 ****        -8.7500  -8.7500  15.2500 Du        
  11640 ****        -8.7500  -8.7500  18.7500 Du        
  11641 ****        -8.7500  -8.7500  19.0000 Du        
  11642 ****        -8.7500  -8.7500  19.2500 Du        
  11643 ****        -8.7500  -8.7500  19.5000 Du        
  11644 ****        -8.7500  -8.7500  19.7500 Du        
  11645 ****        -8.7500  -8.7500  20.0000 Du        
  11646 ****        -8.7500  -8.7500  20.2500 Du        
  11647 ****        -8.7500  -8.7500  20.5000 Du        
  11648 ****        -8.7500  -8.5000  18.7500 Du        
  11649 ****        -8.7500  -8.5000  19.0000 Du        
  11650 ****        -8.7500  -8.5000  19.2500 Du        
  11651 ****        -8.7500  -8.5000  19.5000 Du        
  11652 ****        -8.7500  -8.5000  19.7500 Du        
  11653 ****        -8.7500  -8.5000  20.0000 Du        
  11654 ****        -8.7500  -8.5000  20.2500 Du        
  11655 ****        -8.7500  -8.2500  18.0000 Du        
  11656 ****        -8.7500  -8.2500  18.2500 Du        
  11657 ****        -8.7500  -8.2500  18.5000 Du        
  11658 ****        -8.7500  -8.2500  18.7500 Du        
  11659 ****        -8.7500  -8.2500  19.0000 Du        
  11660 ****        -8.7500  -8.2500  19.2500 Du        
  11661 ****        -8.7500  -8.2500  19.5000 Du        
  11662 ****        -8.7500  -8.2500  19.7500 Du        
  11663 ****        -8.7500  -8.2500  20.0000 Du        
  11664 ****        -8.7500  -8.2500  20.2500 Du        
  11665 ****        -8.7500  -8.0000  16.0000 Du        
  11666 ****        -8.7500  -8.0000  16.2500 Du        
  11667 ****        -8.7500  -8.0000  16.5000 Du        
  11668 ****        -8.7500  -8.0000  16.7500 Du        
  11669 ****        -8.7500  -8.0000  17.0000 Du        
  11670 ****        -8.7500  -8.0000  17.2500 Du        
  11671 ****        -8.7500  -8.0000  17.5000 Du        
  11672 ****        -8.7500  -8.0000  17.7500 Du        
  11673 ****        -8.7500  -8.0000  18.0000 Du        
  11674 ****        -8.7500  -8.0000  18.2500 Du        
  11675 ****        -8.7500  -8.0000  18.5000 Du        
  11676 ****        -8.7500  -8.0000  18.7500 Du        
  11677 ****        -8.7500  -8.0000  19.0000 Du        
  11678 ****        -8.7500  -8.0000  19.2500 Du        
  11679 ****        -8.7500  -8.0000  19.5000 Du        
  11680 ****        -8.7500  -8.0000  19.7500 Du        
  11681 ****        -8.7500  -8.0000  20.0000 Du        
  11682 ****        -8.7500  -7.7500  16.0000 Du        
  11683 ****        -8.7500  -7.7500  16.2500 Du        
  11684 ****        -8.7500  -7.7500  16.5000 Du        
  11685 ****        -8.7500  -7.7500  16.7500 Du        
  11686 ****        -8.7500  -7.7500  17.0000 Du        
  11687 ****        -8.7500  -7.7500  17.2500 Du        
  11688 ****        -8.7500  -7.7500  17.5000 Du        
  11689 ****        -8.7500  -7.7500  17.7500 Du        
  11690 ****        -8.7500  -7.7500  18.0000 Du        
  11691 ****        -8.7500  -7.7500  18.2500 Du        
  11692 ****        -8.7500  -7.7500  18.5000 Du        
  11693 ****        -8.7500  -7.7500  18.7500 Du        
  11694 ****        -8.7500  -7.7500  19.0000 Du        
  11695 ****        -8.7500  -7.7500  19.2500 Du        
  11696 ****        -8.7500  -7.7500  19.5000 Du        
  11697 ****        -8.7500  -7.7500  19.7500 Du        
  11698 ****        -8.7500  -7.7500  20.0000 Du        
  11699 ****        -8.7500  -7.5000  16.2500 Du        
  11700 ****        -8.7500  -7.5000  16.5000 Du        
  11701 ****        -8.7500  -7.5000  16.7500 Du        
  11702 ****        -8.7500  -7.5000  17.0000 Du        
  11703 ****        -8.7500  -7.5000  17.2500 Du        
  11704 ****        -8.7500  -7.5000  17.5000 Du        
  11705 ****        -8.7500  -7.5000  17.7500 Du        
  11706 ****        -8.7500  -7.5000  18.0000 Du        
  11707 ****        -8.7500  -7.5000  18.2500 Du        
  11708 ****        -8.7500  -7.5000  18.5000 Du        
  11709 ****        -8.7500  -7.5000  18.7500 Du        
  11710 ****        -8.7500  -7.5000  19.0000 Du        
  11711 ****        -8.7500  -7.5000  19.2500 Du        
  11712 ****        -8.7500  -7.5000  19.5000 Du        
  11713 ****        -8.7500  -7.5000  19.7500 Du        
  11714 ****        -8.7500  -7.5000  20.0000 Du        
  11715 ****        -8.7500  -7.2500  16.2500 Du        
  11716 ****        -8.7500  -7.2500  16.5000 Du        
  11717 ****        -8.7500  -7.2500  16.7500 Du        
  11718 ****        -8.7500  -7.2500  17.0000 Du        
  11719 ****        -8.7500  -7.2500  17.2500 Du        
  11720 ****        -8.7500  -7.2500  17.5000 Du        
  11721 ****        -8.7500  -7.2500  17.7500 Du        
  11722 ****        -8.7500  -7.2500  18.0000 Du        
  11723 ****        -8.7500  -7.2500  18.2500 Du        
  11724 ****        -8.7500  -7.2500  18.5000 Du        
  11725 ****        -8.7500  -7.2500  18.7500 Du        
  11726 ****        -8.7500  -7.2500  19.0000 Du        
  11727 ****        -8.7500  -7.2500  19.2500 Du        
  11728 ****        -8.7500  -7.2500  19.5000 Du        
  11729 ****        -8.7500  -7.2500  19.7500 Du        
  11730 ****        -8.7500  -7.2500  20.0000 Du        
  11731 ****        -8.7500  -7.0000  16.0000 Du        
  11732 ****        -8.7500  -7.0000  16.2500 Du        
  11733 ****        -8.7500  -7.0000  16.5000 Du        
  11734 ****        -8.7500  -7.0000  16.7500 Du        
  11735 ****        -8.7500  -7.0000  17.0000 Du        
  11736 ****        -8.7500  -7.0000  17.2500 Du        
  11737 ****        -8.7500  -7.0000  17.5000 Du        
  11738 ****        -8.7500  -7.0000  17.7500 Du        
  11739 ****        -8.7500  -7.0000  18.0000 Du        
  11740 ****        -8.7500  -7.0000  18.2500 Du        
  11741 ****        -8.7500  -7.0000  18.5000 Du        
  11742 ****        -8.7500  -7.0000  18.7500 Du        
  11743 ****        -8.7500  -7.0000  19.0000 Du        
  11744 ****        -8.7500  -7.0000  19.2500 Du        
  11745 ****        -8.7500  -7.0000  19.5000 Du        
  11746 ****        -8.7500  -7.0000  19.7500 Du        
  11747 ****        -8.7500  -7.0000  20.0000 Du        
  11748 ****        -8.7500  -6.7500  16.0000 Du        
  11749 ****        -8.7500  -6.7500  16.2500 Du        
  11750 ****        -8.7500  -6.7500  16.5000 Du        
  11751 ****        -8.7500  -6.7500  16.7500 Du        
  11752 ****        -8.7500  -6.7500  17.0000 Du        
  11753 ****        -8.7500  -6.7500  17.2500 Du        
  11754 ****        -8.7500  -6.7500  17.5000 Du        
  11755 ****        -8.7500  -6.7500  17.7500 Du        
  11756 ****        -8.7500  -6.7500  18.0000 Du        
  11757 ****        -8.7500  -6.7500  18.2500 Du        
  11758 ****        -8.7500  -6.7500  18.5000 Du        
  11759 ****        -8.7500  -6.7500  18.7500 Du        
  11760 ****        -8.7500  -6.7500  19.0000 Du        
  11761 ****        -8.7500  -6.7500  19.2500 Du        
  11762 ****        -8.7500  -6.7500  19.5000 Du        
  11763 ****        -8.7500  -6.7500  19.7500 Du        
  11764 ****        -8.7500  -6.7500  20.0000 Du        
  11765 ****        -8.7500  -6.5000  16.2500 Du        
  11766 ****        -8.7500  -6.5000  16.5000 Du        
  11767 ****        -8.7500  -6.5000  16.7500 Du        
  11768 ****        -8.7500  -6.5000  17.0000 Du        
  11769 ****        -8.7500  -6.5000  17.2500 Du        
  11770 ****        -8.7500  -6.5000  17.5000 Du        
  11771 ****        -8.7500  -6.5000  17.7500 Du        
  11772 ****        -8.7500  -6.5000  18.0000 Du        
  11773 ****        -8.7500  -6.5000  18.2500 Du        
  11774 ****        -8.7500  -6.5000  18.5000 Du        
  11775 ****        -8.7500  -6.5000  18.7500 Du        
  11776 ****        -8.7500  -6.5000  19.0000 Du        
  11777 ****        -8.7500  -6.5000  19.2500 Du        
  11778 ****        -8.7500  -6.5000  19.5000 Du        
  11779 ****        -8.7500  -6.5000  19.7500 Du        
  11780 ****        -8.7500  -6.2500  16.5000 Du        
  11781 ****        -8.7500  -6.2500  16.7500 Du        
  11782 ****        -8.7500  -6.2500  17.0000 Du        
  11783 ****        -8.7500  -6.2500  17.2500 Du        
  11784 ****        -8.7500  -6.2500  17.5000 Du        
  11785 ****        -8.7500  -6.2500  17.7500 Du        
  11786 ****        -8.7500  -6.2500  18.0000 Du        
  11787 ****        -8.7500  -6.2500  18.2500 Du        
  11788 ****        -8.7500  -6.2500  18.5000 Du        
  11789 ****        -8.7500  -6.2500  18.7500 Du        
  11790 ****        -8.7500  -6.2500  19.0000 Du        
  11791 ****        -8.7500  -6.2500  19.2500 Du        
  11792 ****        -8.7500  -6.2500  19.5000 Du        
  11793 ****        -8.7500  -6.2500  19.7500 Du        
  11794 ****        -8.7500  -6.0000  17.0000 Du        
  11795 ****        -8.7500  -6.0000  17.2500 Du        
  11796 ****        -8.7500  -6.0000  17.5000 Du        
  11797 ****        -8.7500  -6.0000  17.7500 Du        
  11798 ****        -8.7500  -6.0000  18.0000 Du        
  11799 ****        -8.7500  -6.0000  18.2500 Du        
  11800 ****        -8.7500  -6.0000  18.5000 Du        
  11801 ****        -8.7500  -6.0000  18.7500 Du        
  11802 ****        -8.7500  -6.0000  19.0000 Du        
  11803 ****        -8.7500  -6.0000  19.2500 Du        
  11804 ****        -8.7500  -6.0000  19.5000 Du        
  11805 ****        -8.7500  -6.0000  19.7500 Du        
  11806 ****        -8.7500  -5.7500  17.7500 Du        
  11807 ****        -8.7500  -5.7500  18.0000 Du        
  11808 ****        -8.7500  -5.7500  18.2500 Du        
  11809 ****        -8.7500  -5.7500  18.5000 Du        
  11810 ****        -8.7500  -5.7500  18.7500 Du        
  11811 ****        -8.7500  -5.7500  19.0000 Du        
  11812 ****        -8.7500  -5.7500  19.2500 Du        
  11813 ****        -8.7500  -5.7500  19.5000 Du        
  11814 ****        -8.7500  -5.5000  18.5000 Du        
  11815 ****        -8.7500  -5.5000  18.7500 Du        
  11816 ****        -8.7500  -5.5000  19.0000 Du        
  11817 ****        -8.7500  -5.5000  19.2500 Du        
  11818 ****        -8.7500  -5.2500  18.7500 Du        
  11819 ****        -8.7500  -5.2500  19.0000 Du        
  11820 ****        -8.7500  -5.2500  19.2500 Du        
  11821 ****        -8.7500  -5.0000  19.0000 Du        
  11822 ****        -8.7500  -5.0000  19.2500 Du        
  11823 ****        -8.7500  -3.5000  23.5000 Du        
  11824 ****        -8.7500  -3.5000  23.7500 Du        
  11825 ****        -8.7500  -3.5000  24.0000 Du        
  11826 ****        -8.7500  -3.5000  24.2500 Du        
  11827 ****        -8.7500  -3.2500  22.7500 Du        
  11828 ****        -8.7500  -3.2500  23.0000 Du        
  11829 ****        -8.7500  -3.2500  23.2500 Du        
  11830 ****        -8.7500  -3.2500  23.5000 Du        
  11831 ****        -8.7500  -3.2500  23.7500 Du        
  11832 ****        -8.7500  -3.2500  24.0000 Du        
  11833 ****        -8.7500  -3.2500  24.2500 Du        
  11834 ****        -8.7500  -3.2500  24.5000 Du        
  11835 ****        -8.7500  -3.0000  22.5000 Du        
  11836 ****        -8.7500  -3.0000  22.7500 Du        
  11837 ****        -8.7500  -3.0000  23.0000 Du        
  11838 ****        -8.7500  -3.0000  23.2500 Du        
  11839 ****        -8.7500  -3.0000  23.5000 Du        
  11840 ****        -8.7500  -3.0000  23.7500 Du        
  11841 ****        -8.7500  -3.0000  24.0000 Du        
  11842 ****        -8.7500  -3.0000  24.2500 Du        
  11843 ****        -8.7500  -3.0000  24.5000 Du        
  11844 ****        -8.7500  -3.0000  24.7500 Du        
  11845 ****        -8.7500  -3.0000  25.0000 Du        
  11846 ****        -8.7500  -2.7500  22.2500 Du        
  11847 ****        -8.7500  -2.7500  22.5000 Du        
  11848 ****        -8.7500  -2.7500  22.7500 Du        
  11849 ****        -8.7500  -2.7500  23.0000 Du        
  11850 ****        -8.7500  -2.7500  23.2500 Du        
  11851 ****        -8.7500  -2.7500  23.5000 Du        
  11852 ****        -8.7500  -2.7500  23.7500 Du        
  11853 ****        -8.7500  -2.7500  24.0000 Du        
  11854 ****        -8.7500  -2.7500  24.2500 Du        
  11855 ****        -8.7500  -2.7500  24.5000 Du        
  11856 ****        -8.7500  -2.7500  24.7500 Du        
  11857 ****        -8.7500  -2.7500  25.0000 Du        
  11858 ****        -8.7500  -2.7500  25.2500 Du        
  11859 ****        -8.7500  -2.5000  22.0000 Du        
  11860 ****        -8.7500  -2.5000  22.2500 Du        
  11861 ****        -8.7500  -2.5000  22.5000 Du        
  11862 ****        -8.7500  -2.5000  22.7500 Du        
  11863 ****        -8.7500  -2.5000  23.0000 Du        
  11864 ****        -8.7500  -2.5000  23.2500 Du        
  11865 ****        -8.7500  -2.5000  23.5000 Du        
  11866 ****        -8.7500  -2.5000  23.7500 Du        
  11867 ****        -8.7500  -2.5000  24.0000 Du        
  11868 ****        -8.7500  -2.5000  24.2500 Du        
  11869 ****        -8.7500  -2.5000  24.5000 Du        
  11870 ****        -8.7500  -2.5000  24.7500 Du        
  11871 ****        -8.7500  -2.5000  25.0000 Du        
  11872 ****        -8.7500  -2.5000  25.2500 Du        
  11873 ****        -8.7500  -2.5000  25.5000 Du        
  11874 ****        -8.7500  -2.5000  25.7500 Du        
  11875 ****        -8.7500  -2.5000  26.0000 Du        
  11876 ****        -8.7500  -2.5000  26.5000 Du        
  11877 ****        -8.7500  -2.5000  26.7500 Du        
  11878 ****        -8.7500  -2.5000  27.0000 Du        
  11879 ****        -8.7500  -2.5000  27.2500 Du        
  11880 ****        -8.7500  -2.5000  27.5000 Du        
  11881 ****        -8.7500  -2.5000  27.7500 Du        
  11882 ****        -8.7500  -2.2500  22.0000 Du        
  11883 ****        -8.7500  -2.2500  22.2500 Du        
  11884 ****        -8.7500  -2.2500  22.5000 Du        
  11885 ****        -8.7500  -2.2500  22.7500 Du        
  11886 ****        -8.7500  -2.2500  23.0000 Du        
  11887 ****        -8.7500  -2.2500  23.2500 Du        
  11888 ****        -8.7500  -2.2500  23.5000 Du        
  11889 ****        -8.7500  -2.2500  23.7500 Du        
  11890 ****        -8.7500  -2.2500  24.0000 Du        
  11891 ****        -8.7500  -2.2500  24.2500 Du        
  11892 ****        -8.7500  -2.2500  24.5000 Du        
  11893 ****        -8.7500  -2.2500  24.7500 Du        
  11894 ****        -8.7500  -2.2500  25.0000 Du        
  11895 ****        -8.7500  -2.2500  25.2500 Du        
  11896 ****        -8.7500  -2.2500  25.5000 Du        
  11897 ****        -8.7500  -2.2500  25.7500 Du        
  11898 ****        -8.7500  -2.2500  26.0000 Du        
  11899 ****        -8.7500  -2.2500  26.2500 Du        
  11900 ****        -8.7500  -2.2500  26.5000 Du        
  11901 ****        -8.7500  -2.2500  26.7500 Du        
  11902 ****        -8.7500  -2.2500  27.0000 Du        
  11903 ****        -8.7500  -2.2500  27.2500 Du        
  11904 ****        -8.7500  -2.2500  27.5000 Du        
  11905 ****        -8.7500  -2.2500  27.7500 Du        
  11906 ****        -8.7500  -2.2500  28.0000 Du        
  11907 ****        -8.7500  -2.0000  22.0000 Du        
  11908 ****        -8.7500  -2.0000  22.2500 Du        
  11909 ****        -8.7500  -2.0000  22.5000 Du        
  11910 ****        -8.7500  -2.0000  22.7500 Du        
  11911 ****        -8.7500  -2.0000  23.0000 Du        
  11912 ****        -8.7500  -2.0000  23.2500 Du        
  11913 ****        -8.7500  -2.0000  23.5000 Du        
  11914 ****        -8.7500  -2.0000  23.7500 Du        
  11915 ****        -8.7500  -2.0000  24.0000 Du        
  11916 ****        -8.7500  -2.0000  24.2500 Du        
  11917 ****        -8.7500  -2.0000  24.5000 Du        
  11918 ****        -8.7500  -2.0000  24.7500 Du        
  11919 ****        -8.7500  -2.0000  25.0000 Du        
  11920 ****        -8.7500  -2.0000  25.2500 Du        
  11921 ****        -8.7500  -2.0000  25.5000 Du        
  11922 ****        -8.7500  -2.0000  25.7500 Du        
  11923 ****        -8.7500  -2.0000  26.0000 Du        
  11924 ****        -8.7500  -2.0000  26.2500 Du        
  11925 ****        -8.7500  -2.0000  26.5000 Du        
  11926 ****        -8.7500  -2.0000  26.7500 Du        
  11927 ****        -8.7500  -2.0000  27.0000 Du        
  11928 ****        -8.7500  -2.0000  27.2500 Du        
  11929 ****        -8.7500  -2.0000  27.5000 Du        
  11930 ****        -8.7500  -2.0000  27.7500 Du        
  11931 ****        -8.7500  -2.0000  28.0000 Du        
  11932 ****        -8.7500  -1.7500  22.5000 Du        
  11933 ****        -8.7500  -1.7500  22.7500 Du        
  11934 ****        -8.7500  -1.7500  23.0000 Du        
  11935 ****        -8.7500  -1.7500  23.2500 Du        
  11936 ****        -8.7500  -1.7500  23.5000 Du        
  11937 ****        -8.7500  -1.7500  23.7500 Du        
  11938 ****        -8.7500  -1.7500  24.0000 Du        
  11939 ****        -8.7500  -1.7500  24.2500 Du        
  11940 ****        -8.7500  -1.7500  24.5000 Du        
  11941 ****        -8.7500  -1.7500  24.7500 Du        
  11942 ****        -8.7500  -1.7500  25.0000 Du        
  11943 ****        -8.7500  -1.7500  25.2500 Du        
  11944 ****        -8.7500  -1.7500  25.5000 Du        
  11945 ****        -8.7500  -1.7500  25.7500 Du        
  11946 ****        -8.7500  -1.7500  26.0000 Du        
  11947 ****        -8.7500  -1.7500  26.2500 Du        
  11948 ****        -8.7500  -1.7500  26.5000 Du        
  11949 ****        -8.7500  -1.7500  26.7500 Du        
  11950 ****        -8.7500  -1.7500  27.0000 Du        
  11951 ****        -8.7500  -1.7500  27.2500 Du        
  11952 ****        -8.7500  -1.7500  27.5000 Du        
  11953 ****        -8.7500  -1.7500  27.7500 Du        
  11954 ****        -8.7500  -1.7500  28.0000 Du        
  11955 ****        -8.7500  -1.5000  22.7500 Du        
  11956 ****        -8.7500  -1.5000  23.0000 Du        
  11957 ****        -8.7500  -1.5000  23.2500 Du        
  11958 ****        -8.7500  -1.5000  23.5000 Du        
  11959 ****        -8.7500  -1.5000  23.7500 Du        
  11960 ****        -8.7500  -1.5000  24.0000 Du        
  11961 ****        -8.7500  -1.5000  24.2500 Du        
  11962 ****        -8.7500  -1.5000  24.5000 Du        
  11963 ****        -8.7500  -1.5000  24.7500 Du        
  11964 ****        -8.7500  -1.5000  25.0000 Du        
  11965 ****        -8.7500  -1.5000  25.2500 Du        
  11966 ****        -8.7500  -1.5000  25.5000 Du        
  11967 ****        -8.7500  -1.5000  25.7500 Du        
  11968 ****        -8.7500  -1.5000  26.0000 Du        
  11969 ****        -8.7500  -1.5000  26.2500 Du        
  11970 ****        -8.7500  -1.5000  26.5000 Du        
  11971 ****        -8.7500  -1.5000  26.7500 Du        
  11972 ****        -8.7500  -1.5000  27.0000 Du        
  11973 ****        -8.7500  -1.5000  27.2500 Du        
  11974 ****        -8.7500  -1.5000  27.5000 Du        
  11975 ****        -8.7500  -1.5000  27.7500 Du        
  11976 ****        -8.7500  -1.2500  22.7500 Du        
  11977 ****        -8.7500  -1.2500  23.0000 Du        
  11978 ****        -8.7500  -1.2500  23.2500 Du        
  11979 ****        -8.7500  -1.2500  23.5000 Du        
  11980 ****        -8.7500  -1.2500  23.7500 Du        
  11981 ****        -8.7500  -1.2500  24.0000 Du        
  11982 ****        -8.7500  -1.2500  24.2500 Du        
  11983 ****        -8.7500  -1.2500  24.5000 Du        
  11984 ****        -8.7500  -1.2500  24.7500 Du        
  11985 ****        -8.7500  -1.2500  25.0000 Du        
  11986 ****        -8.7500  -1.2500  25.2500 Du        
  11987 ****        -8.7500  -1.2500  25.5000 Du        
  11988 ****        -8.7500  -1.2500  25.7500 Du        
  11989 ****        -8.7500  -1.2500  26.0000 Du        
  11990 ****        -8.7500  -1.2500  26.2500 Du        
  11991 ****        -8.7500  -1.2500  26.5000 Du        
  11992 ****        -8.7500  -1.2500  26.7500 Du        
  11993 ****        -8.7500  -1.2500  27.0000 Du        
  11994 ****        -8.7500  -1.2500  27.2500 Du        
  11995 ****        -8.7500  -1.0000  23.0000 Du        
  11996 ****        -8.7500  -1.0000  23.2500 Du        
  11997 ****        -8.7500  -1.0000  23.5000 Du        
  11998 ****        -8.7500  -1.0000  23.7500 Du        
  11999 ****        -8.7500  -1.0000  24.0000 Du        
  12000 ****        -8.7500  -1.0000  24.2500 Du        
  12001 ****        -8.7500  -1.0000  24.5000 Du        
  12002 ****        -8.7500  -1.0000  24.7500 Du        
  12003 ****        -8.7500  -1.0000  25.0000 Du        
  12004 ****        -8.7500  -1.0000  25.2500 Du        
  12005 ****        -8.7500  -1.0000  25.5000 Du        
  12006 ****        -8.7500  -1.0000  25.7500 Du        
  12007 ****        -8.7500  -0.7500  23.2500 Du        
  12008 ****        -8.7500  -0.7500  23.5000 Du        
  12009 ****        -8.7500  -0.7500  23.7500 Du        
  12010 ****        -8.7500  -0.7500  24.0000 Du        
  12011 ****        -8.7500  -0.7500  24.2500 Du        
  12012 ****        -8.7500  -0.7500  24.5000 Du        
  12013 ****        -8.7500  -0.7500  24.7500 Du        
  12014 ****        -8.7500  -0.7500  25.0000 Du        
  12015 ****        -8.7500  -0.7500  25.2500 Du        
  12016 ****        -8.7500  -0.7500  25.5000 Du        
  12017 ****        -8.7500  -0.5000  23.5000 Du        
  12018 ****        -8.7500  -0.5000  23.7500 Du        
  12019 ****        -8.7500  -0.5000  24.0000 Du        
  12020 ****        -8.7500  -0.5000  24.2500 Du        
  12021 ****        -8.7500  -0.5000  24.5000 Du        
  12022 ****        -8.7500  -0.5000  24.7500 Du        
  12023 ****        -8.7500  -0.5000  25.0000 Du        
  12024 ****        -8.7500  -0.5000  25.2500 Du        
  12025 ****        -8.7500  -0.2500  23.7500 Du        
  12026 ****        -8.7500  -0.2500  24.0000 Du        
  12027 ****        -8.7500  -0.2500  24.2500 Du        
  12028 ****        -8.7500  -0.2500  24.5000 Du        
  12029 ****        -8.7500  -0.2500  24.7500 Du        
  12030 ****        -8.7500  -0.2500  25.0000 Du        
  12031 ****        -8.7500  -0.2500  25.2500 Du        
  12032 ****        -8.7500   0.0000  23.7500 Du        
  12033 ****        -8.7500   0.0000  24.0000 Du        
  12034 ****        -8.7500   0.0000  24.2500 Du        
  12035 ****        -8.7500   0.0000  24.5000 Du        
  12036 ****        -8.7500   0.0000  24.7500 Du        
  12037 ****        -8.7500   0.0000  25.0000 Du        
  12038 ****        -8.7500   0.0000  25.2500 Du        
  12039 ****        -8.7500   0.2500  23.7500 Du        
  12040 ****        -8.7500   0.2500  24.0000 Du        
  12041 ****        -8.7500   0.2500  24.2500 Du        
  12042 ****        -8.7500   0.2500  24.5000 Du        
  12043 ****        -8.7500   0.2500  24.7500 Du        
  12044 ****        -8.7500   0.2500  25.0000 Du        
  12045 ****        -8.7500   0.2500  25.2500 Du        
  12046 ****        -8.7500   0.5000  24.0000 Du        
  12047 ****        -8.7500   0.5000  24.2500 Du        
  12048 ****        -8.7500   0.5000  24.5000 Du        
  12049 ****        -8.7500   0.5000  24.7500 Du        
  12050 ****        -8.7500   0.5000  25.0000 Du        
  12051 ****        -8.7500   0.5000  25.2500 Du        
  12052 ****        -8.7500   0.7500  24.0000 Du        
  12053 ****        -8.7500   0.7500  24.2500 Du        
  12054 ****        -8.7500   0.7500  24.5000 Du        
  12055 ****        -8.7500   0.7500  24.7500 Du        
  12056 ****        -8.7500   0.7500  25.0000 Du        
  12057 ****        -8.7500   0.7500  25.2500 Du        
  12058 ****        -8.7500   1.0000  24.0000 Du        
  12059 ****        -8.7500   1.0000  24.2500 Du        
  12060 ****        -8.7500   1.0000  24.5000 Du        
  12061 ****        -8.7500   1.0000  24.7500 Du        
  12062 ****        -8.7500   1.0000  25.0000 Du        
  12063 ****        -8.7500   1.0000  25.2500 Du        
  12064 ****        -8.7500   1.0000  25.5000 Du        
  12065 ****        -8.7500   1.2500  24.0000 Du        
  12066 ****        -8.7500   1.2500  24.2500 Du        
  12067 ****        -8.7500   1.2500  24.5000 Du        
  12068 ****        -8.7500   1.2500  24.7500 Du        
  12069 ****        -8.7500   1.2500  25.0000 Du        
  12070 ****        -8.7500   1.2500  25.2500 Du        
  12071 ****        -8.7500   1.2500  25.5000 Du        
  12072 ****        -8.7500   1.5000  24.0000 Du        
  12073 ****        -8.7500   1.5000  24.2500 Du        
  12074 ****        -8.7500   1.5000  24.5000 Du        
  12075 ****        -8.7500   1.5000  24.7500 Du        
  12076 ****        -8.7500   1.5000  25.0000 Du        
  12077 ****        -8.7500   1.5000  25.2500 Du        
  12078 ****        -8.7500   1.5000  25.5000 Du        
  12079 ****        -8.7500   1.7500  24.0000 Du        
  12080 ****        -8.7500   1.7500  24.2500 Du        
  12081 ****        -8.7500   1.7500  24.5000 Du        
  12082 ****        -8.7500   1.7500  24.7500 Du        
  12083 ****        -8.7500   1.7500  25.0000 Du        
  12084 ****        -8.7500   1.7500  25.2500 Du        
  12085 ****        -8.7500   1.7500  25.5000 Du        
  12086 ****        -8.7500   2.0000  24.0000 Du        
  12087 ****        -8.7500   2.0000  24.2500 Du        
  12088 ****        -8.7500   2.0000  24.5000 Du        
  12089 ****        -8.7500   2.0000  24.7500 Du        
  12090 ****        -8.7500   2.0000  25.0000 Du        
  12091 ****        -8.7500   2.0000  25.2500 Du        
  12092 ****        -8.7500   2.0000  25.5000 Du        
  12093 ****        -8.7500   2.2500  24.0000 Du        
  12094 ****        -8.7500   2.2500  24.2500 Du        
  12095 ****        -8.7500   2.2500  24.5000 Du        
  12096 ****        -8.7500   2.2500  24.7500 Du        
  12097 ****        -8.7500   2.2500  25.0000 Du        
  12098 ****        -8.7500   2.2500  25.2500 Du        
  12099 ****        -8.7500   2.2500  25.5000 Du        
  12100 ****        -8.7500   2.2500  25.7500 Du        
  12101 ****        -8.7500   2.5000  24.0000 Du        
  12102 ****        -8.7500   2.5000  24.2500 Du        
  12103 ****        -8.7500   2.5000  24.5000 Du        
  12104 ****        -8.7500   2.5000  24.7500 Du        
  12105 ****        -8.7500   2.5000  25.0000 Du        
  12106 ****        -8.7500   2.5000  25.2500 Du        
  12107 ****        -8.7500   2.5000  25.5000 Du        
  12108 ****        -8.7500   2.5000  25.7500 Du        
  12109 ****        -8.7500   2.7500  24.0000 Du        
  12110 ****        -8.7500   2.7500  24.2500 Du        
  12111 ****        -8.7500   2.7500  24.5000 Du        
  12112 ****        -8.7500   2.7500  24.7500 Du        
  12113 ****        -8.7500   2.7500  25.0000 Du        
  12114 ****        -8.7500   2.7500  25.2500 Du        
  12115 ****        -8.7500   2.7500  25.5000 Du        
  12116 ****        -8.7500   2.7500  25.7500 Du        
  12117 ****        -8.7500   3.0000  24.0000 Du        
  12118 ****        -8.7500   3.0000  24.2500 Du        
  12119 ****        -8.7500   3.0000  24.5000 Du        
  12120 ****        -8.7500   3.0000  24.7500 Du        
  12121 ****        -8.7500   3.0000  25.0000 Du        
  12122 ****        -8.7500   3.0000  25.2500 Du        
  12123 ****        -8.7500   3.0000  25.5000 Du        
  12124 ****        -8.7500   3.0000  25.7500 Du        
  12125 ****        -8.7500   3.0000  26.0000 Du        
  12126 ****        -8.7500   3.2500  24.2500 Du        
  12127 ****        -8.7500   3.2500  24.5000 Du        
  12128 ****        -8.7500   3.2500  24.7500 Du        
  12129 ****        -8.7500   3.2500  25.0000 Du        
  12130 ****        -8.7500   3.2500  25.2500 Du        
  12131 ****        -8.7500   3.2500  25.5000 Du        
  12132 ****        -8.7500   3.2500  25.7500 Du        
  12133 ****        -8.7500   3.2500  26.0000 Du        
  12134 ****        -8.7500   3.5000  24.5000 Du        
  12135 ****        -8.7500   3.5000  24.7500 Du        
  12136 ****        -8.7500   3.5000  25.0000 Du        
  12137 ****        -8.7500   3.5000  25.2500 Du        
  12138 ****        -8.7500   3.5000  25.5000 Du        
  12139 ****        -8.7500   3.5000  25.7500 Du        
  12140 ****        -8.7500   3.5000  26.0000 Du        
  12141 ****        -8.7500   3.7500  24.7500 Du        
  12142 ****        -8.7500   3.7500  25.0000 Du        
  12143 ****        -8.7500   3.7500  25.2500 Du        
  12144 ****        -8.7500   3.7500  25.5000 Du        
  12145 ****        -8.7500   3.7500  25.7500 Du        
  12146 ****        -8.7500   3.7500  26.0000 Du        
  12147 ****        -8.7500   4.0000  25.0000 Du        
  12148 ****        -8.7500   4.0000  25.2500 Du        
  12149 ****        -8.7500   4.0000  25.5000 Du        
  12150 ****        -8.7500   4.0000  25.7500 Du        
  12151 ****        -8.7500   4.0000  26.0000 Du        
  12152 ****        -8.7500   4.2500  25.5000 Du        
  12153 ****        -8.7500   4.2500  25.7500 Du        
  12154 ****        -8.7500   4.2500  26.0000 Du        
  12155 ****        -8.5000 -14.0000  15.0000 Du        
  12156 ****        -8.5000 -14.0000  15.2500 Du        
  12157 ****        -8.5000 -14.0000  15.5000 Du        
  12158 ****        -8.5000 -14.0000  15.7500 Du        
  12159 ****        -8.5000 -14.0000  16.0000 Du        
  12160 ****        -8.5000 -14.0000  16.2500 Du        
  12161 ****        -8.5000 -14.0000  16.5000 Du        
  12162 ****        -8.5000 -14.0000  16.7500 Du        
  12163 ****        -8.5000 -14.0000  17.0000 Du        
  12164 ****        -8.5000 -14.0000  17.2500 Du        
  12165 ****        -8.5000 -14.0000  17.5000 Du        
  12166 ****        -8.5000 -14.0000  17.7500 Du        
  12167 ****        -8.5000 -14.0000  18.0000 Du        
  12168 ****        -8.5000 -14.0000  18.2500 Du        
  12169 ****        -8.5000 -14.0000  18.5000 Du        
  12170 ****        -8.5000 -14.0000  18.7500 Du        
  12171 ****        -8.5000 -14.0000  19.0000 Du        
  12172 ****        -8.5000 -14.0000  19.2500 Du        
  12173 ****        -8.5000 -13.7500  15.0000 Du        
  12174 ****        -8.5000 -13.7500  15.2500 Du        
  12175 ****        -8.5000 -13.7500  15.5000 Du        
  12176 ****        -8.5000 -13.7500  15.7500 Du        
  12177 ****        -8.5000 -13.7500  16.0000 Du        
  12178 ****        -8.5000 -13.7500  16.2500 Du        
  12179 ****        -8.5000 -13.7500  16.5000 Du        
  12180 ****        -8.5000 -13.7500  16.7500 Du        
  12181 ****        -8.5000 -13.7500  17.0000 Du        
  12182 ****        -8.5000 -13.7500  17.2500 Du        
  12183 ****        -8.5000 -13.7500  17.5000 Du        
  12184 ****        -8.5000 -13.7500  17.7500 Du        
  12185 ****        -8.5000 -13.7500  18.0000 Du        
  12186 ****        -8.5000 -13.7500  18.2500 Du        
  12187 ****        -8.5000 -13.7500  18.5000 Du        
  12188 ****        -8.5000 -13.7500  18.7500 Du        
  12189 ****        -8.5000 -13.7500  19.0000 Du        
  12190 ****        -8.5000 -13.7500  19.2500 Du        
  12191 ****        -8.5000 -13.5000  14.7500 Du        
  12192 ****        -8.5000 -13.5000  15.0000 Du        
  12193 ****        -8.5000 -13.5000  15.2500 Du        
  12194 ****        -8.5000 -13.5000  15.5000 Du        
  12195 ****        -8.5000 -13.5000  15.7500 Du        
  12196 ****        -8.5000 -13.5000  16.0000 Du        
  12197 ****        -8.5000 -13.5000  16.2500 Du        
  12198 ****        -8.5000 -13.5000  16.5000 Du        
  12199 ****        -8.5000 -13.5000  16.7500 Du        
  12200 ****        -8.5000 -13.5000  17.0000 Du        
  12201 ****        -8.5000 -13.5000  17.2500 Du        
  12202 ****        -8.5000 -13.5000  17.5000 Du        
  12203 ****        -8.5000 -13.5000  17.7500 Du        
  12204 ****        -8.5000 -13.5000  18.0000 Du        
  12205 ****        -8.5000 -13.5000  18.2500 Du        
  12206 ****        -8.5000 -13.5000  18.5000 Du        
  12207 ****        -8.5000 -13.5000  18.7500 Du        
  12208 ****        -8.5000 -13.5000  19.0000 Du        
  12209 ****        -8.5000 -13.5000  19.2500 Du        
  12210 ****        -8.5000 -13.2500  14.7500 Du        
  12211 ****        -8.5000 -13.2500  15.0000 Du        
  12212 ****        -8.5000 -13.2500  15.2500 Du        
  12213 ****        -8.5000 -13.2500  15.5000 Du        
  12214 ****        -8.5000 -13.2500  15.7500 Du        
  12215 ****        -8.5000 -13.2500  16.0000 Du        
  12216 ****        -8.5000 -13.2500  16.2500 Du        
  12217 ****        -8.5000 -13.2500  16.5000 Du        
  12218 ****        -8.5000 -13.2500  16.7500 Du        
  12219 ****        -8.5000 -13.2500  17.0000 Du        
  12220 ****        -8.5000 -13.2500  17.2500 Du        
  12221 ****        -8.5000 -13.2500  17.5000 Du        
  12222 ****        -8.5000 -13.2500  17.7500 Du        
  12223 ****        -8.5000 -13.2500  18.0000 Du        
  12224 ****        -8.5000 -13.2500  18.2500 Du        
  12225 ****        -8.5000 -13.2500  18.5000 Du        
  12226 ****        -8.5000 -13.2500  18.7500 Du        
  12227 ****        -8.5000 -13.2500  19.0000 Du        
  12228 ****        -8.5000 -13.2500  19.2500 Du        
  12229 ****        -8.5000 -13.0000  14.7500 Du        
  12230 ****        -8.5000 -13.0000  15.0000 Du        
  12231 ****        -8.5000 -13.0000  15.2500 Du        
  12232 ****        -8.5000 -13.0000  15.5000 Du        
  12233 ****        -8.5000 -13.0000  15.7500 Du        
  12234 ****        -8.5000 -13.0000  16.0000 Du        
  12235 ****        -8.5000 -13.0000  16.2500 Du        
  12236 ****        -8.5000 -13.0000  16.5000 Du        
  12237 ****        -8.5000 -13.0000  16.7500 Du        
  12238 ****        -8.5000 -13.0000  17.0000 Du        
  12239 ****        -8.5000 -13.0000  17.2500 Du        
  12240 ****        -8.5000 -13.0000  17.5000 Du        
  12241 ****        -8.5000 -13.0000  17.7500 Du        
  12242 ****        -8.5000 -13.0000  18.0000 Du        
  12243 ****        -8.5000 -13.0000  18.2500 Du        
  12244 ****        -8.5000 -13.0000  18.5000 Du        
  12245 ****        -8.5000 -13.0000  18.7500 Du        
  12246 ****        -8.5000 -13.0000  19.0000 Du        
  12247 ****        -8.5000 -13.0000  19.2500 Du        
  12248 ****        -8.5000 -12.7500  14.7500 Du        
  12249 ****        -8.5000 -12.7500  15.0000 Du        
  12250 ****        -8.5000 -12.7500  15.2500 Du        
  12251 ****        -8.5000 -12.7500  15.5000 Du        
  12252 ****        -8.5000 -12.7500  15.7500 Du        
  12253 ****        -8.5000 -12.7500  16.0000 Du        
  12254 ****        -8.5000 -12.7500  16.2500 Du        
  12255 ****        -8.5000 -12.7500  16.5000 Du        
  12256 ****        -8.5000 -12.7500  16.7500 Du        
  12257 ****        -8.5000 -12.7500  17.0000 Du        
  12258 ****        -8.5000 -12.7500  17.2500 Du        
  12259 ****        -8.5000 -12.7500  17.5000 Du        
  12260 ****        -8.5000 -12.7500  17.7500 Du        
  12261 ****        -8.5000 -12.7500  18.0000 Du        
  12262 ****        -8.5000 -12.7500  18.2500 Du        
  12263 ****        -8.5000 -12.7500  18.5000 Du        
  12264 ****        -8.5000 -12.7500  18.7500 Du        
  12265 ****        -8.5000 -12.7500  19.0000 Du        
  12266 ****        -8.5000 -12.7500  19.2500 Du        
  12267 ****        -8.5000 -12.5000  14.7500 Du        
  12268 ****        -8.5000 -12.5000  15.0000 Du        
  12269 ****        -8.5000 -12.5000  15.2500 Du        
  12270 ****        -8.5000 -12.5000  15.5000 Du        
  12271 ****        -8.5000 -12.5000  15.7500 Du        
  12272 ****        -8.5000 -12.5000  16.0000 Du        
  12273 ****        -8.5000 -12.5000  16.2500 Du        
  12274 ****        -8.5000 -12.5000  16.5000 Du        
  12275 ****        -8.5000 -12.5000  16.7500 Du        
  12276 ****        -8.5000 -12.5000  17.0000 Du        
  12277 ****        -8.5000 -12.5000  17.2500 Du        
  12278 ****        -8.5000 -12.5000  17.5000 Du        
  12279 ****        -8.5000 -12.5000  17.7500 Du        
  12280 ****        -8.5000 -12.5000  18.0000 Du        
  12281 ****        -8.5000 -12.5000  18.2500 Du        
  12282 ****        -8.5000 -12.5000  18.5000 Du        
  12283 ****        -8.5000 -12.5000  18.7500 Du        
  12284 ****        -8.5000 -12.5000  19.0000 Du        
  12285 ****        -8.5000 -12.5000  19.2500 Du        
  12286 ****        -8.5000 -12.2500  14.7500 Du        
  12287 ****        -8.5000 -12.2500  15.0000 Du        
  12288 ****        -8.5000 -12.2500  15.2500 Du        
  12289 ****        -8.5000 -12.2500  15.5000 Du        
  12290 ****        -8.5000 -12.2500  15.7500 Du        
  12291 ****        -8.5000 -12.2500  16.0000 Du        
  12292 ****        -8.5000 -12.2500  16.2500 Du        
  12293 ****        -8.5000 -12.2500  16.5000 Du        
  12294 ****        -8.5000 -12.2500  16.7500 Du        
  12295 ****        -8.5000 -12.2500  17.0000 Du        
  12296 ****        -8.5000 -12.2500  17.2500 Du        
  12297 ****        -8.5000 -12.2500  17.5000 Du        
  12298 ****        -8.5000 -12.2500  17.7500 Du        
  12299 ****        -8.5000 -12.2500  18.0000 Du        
  12300 ****        -8.5000 -12.2500  18.2500 Du        
  12301 ****        -8.5000 -12.2500  18.5000 Du        
  12302 ****        -8.5000 -12.2500  18.7500 Du        
  12303 ****        -8.5000 -12.2500  19.0000 Du        
  12304 ****        -8.5000 -12.2500  19.2500 Du        
  12305 ****        -8.5000 -12.0000  14.7500 Du        
  12306 ****        -8.5000 -12.0000  15.0000 Du        
  12307 ****        -8.5000 -12.0000  15.2500 Du        
  12308 ****        -8.5000 -12.0000  15.5000 Du        
  12309 ****        -8.5000 -12.0000  15.7500 Du        
  12310 ****        -8.5000 -12.0000  16.0000 Du        
  12311 ****        -8.5000 -12.0000  16.2500 Du        
  12312 ****        -8.5000 -12.0000  16.5000 Du        
  12313 ****        -8.5000 -12.0000  16.7500 Du        
  12314 ****        -8.5000 -12.0000  17.5000 Du        
  12315 ****        -8.5000 -12.0000  17.7500 Du        
  12316 ****        -8.5000 -12.0000  18.0000 Du        
  12317 ****        -8.5000 -12.0000  18.2500 Du        
  12318 ****        -8.5000 -12.0000  18.5000 Du        
  12319 ****        -8.5000 -12.0000  18.7500 Du        
  12320 ****        -8.5000 -12.0000  19.0000 Du        
  12321 ****        -8.5000 -12.0000  19.2500 Du        
  12322 ****        -8.5000 -11.7500  14.7500 Du        
  12323 ****        -8.5000 -11.7500  15.0000 Du        
  12324 ****        -8.5000 -11.7500  15.2500 Du        
  12325 ****        -8.5000 -11.7500  15.5000 Du        
  12326 ****        -8.5000 -11.7500  15.7500 Du        
  12327 ****        -8.5000 -11.7500  16.0000 Du        
  12328 ****        -8.5000 -11.7500  16.2500 Du        
  12329 ****        -8.5000 -11.7500  16.5000 Du        
  12330 ****        -8.5000 -11.7500  17.7500 Du        
  12331 ****        -8.5000 -11.7500  18.0000 Du        
  12332 ****        -8.5000 -11.7500  18.2500 Du        
  12333 ****        -8.5000 -11.7500  18.5000 Du        
  12334 ****        -8.5000 -11.7500  18.7500 Du        
  12335 ****        -8.5000 -11.7500  19.0000 Du        
  12336 ****        -8.5000 -11.7500  19.2500 Du        
  12337 ****        -8.5000 -11.5000  14.7500 Du        
  12338 ****        -8.5000 -11.5000  15.0000 Du        
  12339 ****        -8.5000 -11.5000  15.2500 Du        
  12340 ****        -8.5000 -11.5000  15.5000 Du        
  12341 ****        -8.5000 -11.5000  15.7500 Du        
  12342 ****        -8.5000 -11.5000  16.0000 Du        
  12343 ****        -8.5000 -11.5000  16.2500 Du        
  12344 ****        -8.5000 -11.5000  18.0000 Du        
  12345 ****        -8.5000 -11.5000  18.2500 Du        
  12346 ****        -8.5000 -11.5000  18.5000 Du        
  12347 ****        -8.5000 -11.5000  18.7500 Du        
  12348 ****        -8.5000 -11.5000  19.0000 Du        
  12349 ****        -8.5000 -11.5000  19.2500 Du        
  12350 ****        -8.5000 -11.2500  14.7500 Du        
  12351 ****        -8.5000 -11.2500  15.0000 Du        
  12352 ****        -8.5000 -11.2500  15.2500 Du        
  12353 ****        -8.5000 -11.2500  15.5000 Du        
  12354 ****        -8.5000 -11.2500  15.7500 Du        
  12355 ****        -8.5000 -11.2500  16.0000 Du        
  12356 ****        -8.5000 -11.2500  18.2500 Du        
  12357 ****        -8.5000 -11.2500  18.5000 Du        
  12358 ****        -8.5000 -11.2500  18.7500 Du        
  12359 ****        -8.5000 -11.2500  19.0000 Du        
  12360 ****        -8.5000 -11.2500  19.2500 Du        
  12361 ****        -8.5000 -11.0000  14.5000 Du        
  12362 ****        -8.5000 -11.0000  14.7500 Du        
  12363 ****        -8.5000 -11.0000  15.0000 Du        
  12364 ****        -8.5000 -11.0000  15.2500 Du        
  12365 ****        -8.5000 -11.0000  15.5000 Du        
  12366 ****        -8.5000 -11.0000  15.7500 Du        
  12367 ****        -8.5000 -11.0000  18.5000 Du        
  12368 ****        -8.5000 -11.0000  18.7500 Du        
  12369 ****        -8.5000 -11.0000  19.0000 Du        
  12370 ****        -8.5000 -11.0000  19.2500 Du        
  12371 ****        -8.5000 -11.0000  19.5000 Du        
  12372 ****        -8.5000 -11.0000  23.7500 Du        
  12373 ****        -8.5000 -10.7500  14.5000 Du        
  12374 ****        -8.5000 -10.7500  14.7500 Du        
  12375 ****        -8.5000 -10.7500  15.0000 Du        
  12376 ****        -8.5000 -10.7500  15.2500 Du        
  12377 ****        -8.5000 -10.7500  15.5000 Du        
  12378 ****        -8.5000 -10.7500  18.7500 Du        
  12379 ****        -8.5000 -10.7500  19.0000 Du        
  12380 ****        -8.5000 -10.7500  19.2500 Du        
  12381 ****        -8.5000 -10.7500  19.5000 Du        
  12382 ****        -8.5000 -10.7500  23.5000 Du        
  12383 ****        -8.5000 -10.7500  23.7500 Du        
  12384 ****        -8.5000 -10.5000  14.2500 Du        
  12385 ****        -8.5000 -10.5000  14.5000 Du        
  12386 ****        -8.5000 -10.5000  14.7500 Du        
  12387 ****        -8.5000 -10.5000  15.0000 Du        
  12388 ****        -8.5000 -10.5000  15.2500 Du        
  12389 ****        -8.5000 -10.5000  19.0000 Du        
  12390 ****        -8.5000 -10.5000  19.2500 Du        
  12391 ****        -8.5000 -10.5000  19.5000 Du        
  12392 ****        -8.5000 -10.5000  19.7500 Du        
  12393 ****        -8.5000 -10.5000  23.5000 Du        
  12394 ****        -8.5000 -10.5000  23.7500 Du        
  12395 ****        -8.5000 -10.2500  14.2500 Du        
  12396 ****        -8.5000 -10.2500  14.5000 Du        
  12397 ****        -8.5000 -10.2500  14.7500 Du        
  12398 ****        -8.5000 -10.2500  15.0000 Du        
  12399 ****        -8.5000 -10.2500  15.2500 Du        
  12400 ****        -8.5000 -10.2500  19.2500 Du        
  12401 ****        -8.5000 -10.2500  19.5000 Du        
  12402 ****        -8.5000 -10.2500  19.7500 Du        
  12403 ****        -8.5000 -10.2500  20.0000 Du        
  12404 ****        -8.5000 -10.0000  14.0000 Du        
  12405 ****        -8.5000 -10.0000  14.2500 Du        
  12406 ****        -8.5000 -10.0000  14.5000 Du        
  12407 ****        -8.5000 -10.0000  14.7500 Du        
  12408 ****        -8.5000 -10.0000  15.0000 Du        
  12409 ****        -8.5000 -10.0000  19.5000 Du        
  12410 ****        -8.5000 -10.0000  19.7500 Du        
  12411 ****        -8.5000 -10.0000  20.0000 Du        
  12412 ****        -8.5000 -10.0000  20.2500 Du        
  12413 ****        -8.5000 -10.0000  20.5000 Du        
  12414 ****        -8.5000  -9.7500  14.0000 Du        
  12415 ****        -8.5000  -9.7500  14.2500 Du        
  12416 ****        -8.5000  -9.7500  14.5000 Du        
  12417 ****        -8.5000  -9.7500  14.7500 Du        
  12418 ****        -8.5000  -9.7500  15.0000 Du        
  12419 ****        -8.5000  -9.7500  19.5000 Du        
  12420 ****        -8.5000  -9.7500  19.7500 Du        
  12421 ****        -8.5000  -9.7500  20.0000 Du        
  12422 ****        -8.5000  -9.7500  20.2500 Du        
  12423 ****        -8.5000  -9.7500  20.5000 Du        
  12424 ****        -8.5000  -9.5000  14.2500 Du        
  12425 ****        -8.5000  -9.5000  14.5000 Du        
  12426 ****        -8.5000  -9.5000  14.7500 Du        
  12427 ****        -8.5000  -9.5000  19.5000 Du        
  12428 ****        -8.5000  -9.5000  19.7500 Du        
  12429 ****        -8.5000  -9.5000  20.0000 Du        
  12430 ****        -8.5000  -9.5000  20.2500 Du        
  12431 ****        -8.5000  -9.5000  20.5000 Du        
  12432 ****        -8.5000  -9.2500  19.5000 Du        
  12433 ****        -8.5000  -9.2500  19.7500 Du        
  12434 ****        -8.5000  -9.2500  20.0000 Du        
  12435 ****        -8.5000  -9.2500  20.2500 Du        
  12436 ****        -8.5000  -9.2500  20.5000 Du        
  12437 ****        -8.5000  -9.0000  19.5000 Du        
  12438 ****        -8.5000  -9.0000  19.7500 Du        
  12439 ****        -8.5000  -9.0000  20.0000 Du        
  12440 ****        -8.5000  -9.0000  20.2500 Du        
  12441 ****        -8.5000  -9.0000  20.5000 Du        
  12442 ****        -8.5000  -8.7500  19.5000 Du        
  12443 ****        -8.5000  -8.7500  19.7500 Du        
  12444 ****        -8.5000  -8.7500  20.0000 Du        
  12445 ****        -8.5000  -8.7500  20.2500 Du        
  12446 ****        -8.5000  -8.5000  19.5000 Du        
  12447 ****        -8.5000  -8.5000  19.7500 Du        
  12448 ****        -8.5000  -8.5000  20.0000 Du        
  12449 ****        -8.5000  -8.5000  20.2500 Du        
  12450 ****        -8.5000  -8.2500  19.2500 Du        
  12451 ****        -8.5000  -8.2500  19.5000 Du        
  12452 ****        -8.5000  -8.2500  19.7500 Du        
  12453 ****        -8.5000  -8.2500  20.0000 Du        
  12454 ****        -8.5000  -8.0000  18.7500 Du        
  12455 ****        -8.5000  -8.0000  19.0000 Du        
  12456 ****        -8.5000  -8.0000  19.2500 Du        
  12457 ****        -8.5000  -8.0000  19.5000 Du        
  12458 ****        -8.5000  -8.0000  19.7500 Du        
  12459 ****        -8.5000  -8.0000  20.0000 Du        
  12460 ****        -8.5000  -7.7500  18.0000 Du        
  12461 ****        -8.5000  -7.7500  18.2500 Du        
  12462 ****        -8.5000  -7.7500  18.5000 Du        
  12463 ****        -8.5000  -7.7500  18.7500 Du        
  12464 ****        -8.5000  -7.7500  19.0000 Du        
  12465 ****        -8.5000  -7.7500  19.2500 Du        
  12466 ****        -8.5000  -7.7500  19.5000 Du        
  12467 ****        -8.5000  -7.7500  19.7500 Du        
  12468 ****        -8.5000  -7.7500  20.0000 Du        
  12469 ****        -8.5000  -7.5000  17.0000 Du        
  12470 ****        -8.5000  -7.5000  17.2500 Du        
  12471 ****        -8.5000  -7.5000  17.5000 Du        
  12472 ****        -8.5000  -7.5000  17.7500 Du        
  12473 ****        -8.5000  -7.5000  18.0000 Du        
  12474 ****        -8.5000  -7.5000  18.2500 Du        
  12475 ****        -8.5000  -7.5000  18.5000 Du        
  12476 ****        -8.5000  -7.5000  18.7500 Du        
  12477 ****        -8.5000  -7.5000  19.0000 Du        
  12478 ****        -8.5000  -7.5000  19.2500 Du        
  12479 ****        -8.5000  -7.5000  19.5000 Du        
  12480 ****        -8.5000  -7.5000  19.7500 Du        
  12481 ****        -8.5000  -7.5000  20.0000 Du        
  12482 ****        -8.5000  -7.2500  16.5000 Du        
  12483 ****        -8.5000  -7.2500  16.7500 Du        
  12484 ****        -8.5000  -7.2500  17.0000 Du        
  12485 ****        -8.5000  -7.2500  17.2500 Du        
  12486 ****        -8.5000  -7.2500  17.5000 Du        
  12487 ****        -8.5000  -7.2500  17.7500 Du        
  12488 ****        -8.5000  -7.2500  18.0000 Du        
  12489 ****        -8.5000  -7.2500  18.2500 Du        
  12490 ****        -8.5000  -7.2500  18.5000 Du        
  12491 ****        -8.5000  -7.2500  18.7500 Du        
  12492 ****        -8.5000  -7.2500  19.0000 Du        
  12493 ****        -8.5000  -7.2500  19.2500 Du        
  12494 ****        -8.5000  -7.2500  19.5000 Du        
  12495 ****        -8.5000  -7.2500  19.7500 Du        
  12496 ****        -8.5000  -7.2500  20.0000 Du        
  12497 ****        -8.5000  -7.0000  16.5000 Du        
  12498 ****        -8.5000  -7.0000  16.7500 Du        
  12499 ****        -8.5000  -7.0000  17.0000 Du        
  12500 ****        -8.5000  -7.0000  17.2500 Du        
  12501 ****        -8.5000  -7.0000  17.5000 Du        
  12502 ****        -8.5000  -7.0000  17.7500 Du        
  12503 ****        -8.5000  -7.0000  18.0000 Du        
  12504 ****        -8.5000  -7.0000  18.2500 Du        
  12505 ****        -8.5000  -7.0000  18.5000 Du        
  12506 ****        -8.5000  -7.0000  18.7500 Du        
  12507 ****        -8.5000  -7.0000  19.0000 Du        
  12508 ****        -8.5000  -7.0000  19.2500 Du        
  12509 ****        -8.5000  -7.0000  19.5000 Du        
  12510 ****        -8.5000  -7.0000  19.7500 Du        
  12511 ****        -8.5000  -7.0000  20.0000 Du        
  12512 ****        -8.5000  -6.7500  16.2500 Du        
  12513 ****        -8.5000  -6.7500  16.5000 Du        
  12514 ****        -8.5000  -6.7500  16.7500 Du        
  12515 ****        -8.5000  -6.7500  17.0000 Du        
  12516 ****        -8.5000  -6.7500  17.2500 Du        
  12517 ****        -8.5000  -6.7500  17.5000 Du        
  12518 ****        -8.5000  -6.7500  17.7500 Du        
  12519 ****        -8.5000  -6.7500  18.0000 Du        
  12520 ****        -8.5000  -6.7500  18.2500 Du        
  12521 ****        -8.5000  -6.7500  18.5000 Du        
  12522 ****        -8.5000  -6.7500  18.7500 Du        
  12523 ****        -8.5000  -6.7500  19.0000 Du        
  12524 ****        -8.5000  -6.7500  19.2500 Du        
  12525 ****        -8.5000  -6.7500  19.5000 Du        
  12526 ****        -8.5000  -6.7500  19.7500 Du        
  12527 ****        -8.5000  -6.7500  20.0000 Du        
  12528 ****        -8.5000  -6.5000  16.2500 Du        
  12529 ****        -8.5000  -6.5000  16.5000 Du        
  12530 ****        -8.5000  -6.5000  16.7500 Du        
  12531 ****        -8.5000  -6.5000  17.0000 Du        
  12532 ****        -8.5000  -6.5000  17.2500 Du        
  12533 ****        -8.5000  -6.5000  17.5000 Du        
  12534 ****        -8.5000  -6.5000  17.7500 Du        
  12535 ****        -8.5000  -6.5000  18.0000 Du        
  12536 ****        -8.5000  -6.5000  18.2500 Du        
  12537 ****        -8.5000  -6.5000  18.5000 Du        
  12538 ****        -8.5000  -6.5000  18.7500 Du        
  12539 ****        -8.5000  -6.5000  19.0000 Du        
  12540 ****        -8.5000  -6.5000  19.2500 Du        
  12541 ****        -8.5000  -6.5000  19.5000 Du        
  12542 ****        -8.5000  -6.5000  19.7500 Du        
  12543 ****        -8.5000  -6.2500  16.7500 Du        
  12544 ****        -8.5000  -6.2500  17.0000 Du        
  12545 ****        -8.5000  -6.2500  17.2500 Du        
  12546 ****        -8.5000  -6.2500  17.5000 Du        
  12547 ****        -8.5000  -6.2500  17.7500 Du        
  12548 ****        -8.5000  -6.2500  18.0000 Du        
  12549 ****        -8.5000  -6.2500  18.2500 Du        
  12550 ****        -8.5000  -6.2500  18.5000 Du        
  12551 ****        -8.5000  -6.2500  18.7500 Du        
  12552 ****        -8.5000  -6.2500  19.0000 Du        
  12553 ****        -8.5000  -6.2500  19.2500 Du        
  12554 ****        -8.5000  -6.2500  19.5000 Du        
  12555 ****        -8.5000  -6.2500  19.7500 Du        
  12556 ****        -8.5000  -6.0000  17.5000 Du        
  12557 ****        -8.5000  -6.0000  17.7500 Du        
  12558 ****        -8.5000  -6.0000  18.0000 Du        
  12559 ****        -8.5000  -6.0000  18.2500 Du        
  12560 ****        -8.5000  -6.0000  18.5000 Du        
  12561 ****        -8.5000  -6.0000  18.7500 Du        
  12562 ****        -8.5000  -6.0000  19.0000 Du        
  12563 ****        -8.5000  -6.0000  19.2500 Du        
  12564 ****        -8.5000  -6.0000  19.5000 Du        
  12565 ****        -8.5000  -6.0000  19.7500 Du        
  12566 ****        -8.5000  -6.0000  20.0000 Du        
  12567 ****        -8.5000  -5.7500  17.7500 Du        
  12568 ****        -8.5000  -5.7500  18.0000 Du        
  12569 ****        -8.5000  -5.7500  18.2500 Du        
  12570 ****        -8.5000  -5.7500  18.5000 Du        
  12571 ****        -8.5000  -5.7500  18.7500 Du        
  12572 ****        -8.5000  -5.7500  19.0000 Du        
  12573 ****        -8.5000  -5.7500  19.2500 Du        
  12574 ****        -8.5000  -5.7500  19.5000 Du        
  12575 ****        -8.5000  -5.7500  19.7500 Du        
  12576 ****        -8.5000  -5.5000  18.2500 Du        
  12577 ****        -8.5000  -5.5000  18.5000 Du        
  12578 ****        -8.5000  -5.5000  18.7500 Du        
  12579 ****        -8.5000  -5.5000  19.0000 Du        
  12580 ****        -8.5000  -5.5000  19.2500 Du        
  12581 ****        -8.5000  -5.5000  19.5000 Du        
  12582 ****        -8.5000  -5.5000  19.7500 Du        
  12583 ****        -8.5000  -5.2500  18.5000 Du        
  12584 ****        -8.5000  -5.2500  18.7500 Du        
  12585 ****        -8.5000  -5.2500  19.0000 Du        
  12586 ****        -8.5000  -5.2500  19.2500 Du        
  12587 ****        -8.5000  -5.2500  19.5000 Du        
  12588 ****        -8.5000  -5.2500  19.7500 Du        
  12589 ****        -8.5000  -5.0000  19.5000 Du        
  12590 ****        -8.5000  -5.0000  19.7500 Du        
  12591 ****        -8.5000  -3.5000  22.7500 Du        
  12592 ****        -8.5000  -3.5000  23.0000 Du        
  12593 ****        -8.5000  -3.5000  23.2500 Du        
  12594 ****        -8.5000  -3.5000  23.5000 Du        
  12595 ****        -8.5000  -3.5000  23.7500 Du        
  12596 ****        -8.5000  -3.5000  24.0000 Du        
  12597 ****        -8.5000  -3.5000  24.2500 Du        
  12598 ****        -8.5000  -3.5000  24.5000 Du        
  12599 ****        -8.5000  -3.2500  21.5000 Du        
  12600 ****        -8.5000  -3.2500  21.7500 Du        
  12601 ****        -8.5000  -3.2500  22.0000 Du        
  12602 ****        -8.5000  -3.2500  22.2500 Du        
  12603 ****        -8.5000  -3.2500  22.5000 Du        
  12604 ****        -8.5000  -3.2500  22.7500 Du        
  12605 ****        -8.5000  -3.2500  23.0000 Du        
  12606 ****        -8.5000  -3.2500  23.2500 Du        
  12607 ****        -8.5000  -3.2500  23.5000 Du        
  12608 ****        -8.5000  -3.2500  23.7500 Du        
  12609 ****        -8.5000  -3.2500  24.0000 Du        
  12610 ****        -8.5000  -3.2500  24.2500 Du        
  12611 ****        -8.5000  -3.2500  24.5000 Du        
  12612 ****        -8.5000  -3.2500  24.7500 Du        
  12613 ****        -8.5000  -3.0000  21.5000 Du        
  12614 ****        -8.5000  -3.0000  21.7500 Du        
  12615 ****        -8.5000  -3.0000  22.0000 Du        
  12616 ****        -8.5000  -3.0000  22.2500 Du        
  12617 ****        -8.5000  -3.0000  22.5000 Du        
  12618 ****        -8.5000  -3.0000  22.7500 Du        
  12619 ****        -8.5000  -3.0000  23.0000 Du        
  12620 ****        -8.5000  -3.0000  23.2500 Du        
  12621 ****        -8.5000  -3.0000  23.5000 Du        
  12622 ****        -8.5000  -3.0000  23.7500 Du        
  12623 ****        -8.5000  -3.0000  24.0000 Du        
  12624 ****        -8.5000  -3.0000  24.2500 Du        
  12625 ****        -8.5000  -3.0000  24.5000 Du        
  12626 ****        -8.5000  -3.0000  24.7500 Du        
  12627 ****        -8.5000  -3.0000  25.0000 Du        
  12628 ****        -8.5000  -2.7500  21.5000 Du        
  12629 ****        -8.5000  -2.7500  21.7500 Du        
  12630 ****        -8.5000  -2.7500  22.0000 Du        
  12631 ****        -8.5000  -2.7500  22.2500 Du        
  12632 ****        -8.5000  -2.7500  22.5000 Du        
  12633 ****        -8.5000  -2.7500  22.7500 Du        
  12634 ****        -8.5000  -2.7500  23.0000 Du        
  12635 ****        -8.5000  -2.7500  23.2500 Du        
  12636 ****        -8.5000  -2.7500  23.5000 Du        
  12637 ****        -8.5000  -2.7500  23.7500 Du        
  12638 ****        -8.5000  -2.7500  24.0000 Du        
  12639 ****        -8.5000  -2.7500  24.2500 Du        
  12640 ****        -8.5000  -2.7500  24.5000 Du        
  12641 ****        -8.5000  -2.7500  24.7500 Du        
  12642 ****        -8.5000  -2.7500  25.0000 Du        
  12643 ****        -8.5000  -2.7500  27.0000 Du        
  12644 ****        -8.5000  -2.7500  27.2500 Du        
  12645 ****        -8.5000  -2.7500  27.5000 Du        
  12646 ****        -8.5000  -2.7500  27.7500 Du        
  12647 ****        -8.5000  -2.7500  28.0000 Du        
  12648 ****        -8.5000  -2.5000  21.7500 Du        
  12649 ****        -8.5000  -2.5000  22.0000 Du        
  12650 ****        -8.5000  -2.5000  22.2500 Du        
  12651 ****        -8.5000  -2.5000  22.5000 Du        
  12652 ****        -8.5000  -2.5000  22.7500 Du        
  12653 ****        -8.5000  -2.5000  23.0000 Du        
  12654 ****        -8.5000  -2.5000  23.2500 Du        
  12655 ****        -8.5000  -2.5000  23.5000 Du        
  12656 ****        -8.5000  -2.5000  23.7500 Du        
  12657 ****        -8.5000  -2.5000  24.0000 Du        
  12658 ****        -8.5000  -2.5000  24.2500 Du        
  12659 ****        -8.5000  -2.5000  24.5000 Du        
  12660 ****        -8.5000  -2.5000  24.7500 Du        
  12661 ****        -8.5000  -2.5000  25.0000 Du        
  12662 ****        -8.5000  -2.5000  25.2500 Du        
  12663 ****        -8.5000  -2.5000  27.0000 Du        
  12664 ****        -8.5000  -2.5000  27.2500 Du        
  12665 ****        -8.5000  -2.5000  27.5000 Du        
  12666 ****        -8.5000  -2.5000  27.7500 Du        
  12667 ****        -8.5000  -2.5000  28.0000 Du        
  12668 ****        -8.5000  -2.2500  22.0000 Du        
  12669 ****        -8.5000  -2.2500  22.2500 Du        
  12670 ****        -8.5000  -2.2500  22.5000 Du        
  12671 ****        -8.5000  -2.2500  22.7500 Du        
  12672 ****        -8.5000  -2.2500  23.0000 Du        
  12673 ****        -8.5000  -2.2500  23.2500 Du        
  12674 ****        -8.5000  -2.2500  23.5000 Du        
  12675 ****        -8.5000  -2.2500  23.7500 Du        
  12676 ****        -8.5000  -2.2500  24.0000 Du        
  12677 ****        -8.5000  -2.2500  24.2500 Du        
  12678 ****        -8.5000  -2.2500  24.5000 Du        
  12679 ****        -8.5000  -2.2500  24.7500 Du        
  12680 ****        -8.5000  -2.2500  25.0000 Du        
  12681 ****        -8.5000  -2.2500  25.2500 Du        
  12682 ****        -8.5000  -2.2500  26.7500 Du        
  12683 ****        -8.5000  -2.2500  27.0000 Du        
  12684 ****        -8.5000  -2.2500  27.2500 Du        
  12685 ****        -8.5000  -2.2500  27.5000 Du        
  12686 ****        -8.5000  -2.2500  27.7500 Du        
  12687 ****        -8.5000  -2.2500  28.0000 Du        
  12688 ****        -8.5000  -2.0000  22.2500 Du        
  12689 ****        -8.5000  -2.0000  22.5000 Du        
  12690 ****        -8.5000  -2.0000  22.7500 Du        
  12691 ****        -8.5000  -2.0000  23.0000 Du        
  12692 ****        -8.5000  -2.0000  23.2500 Du        
  12693 ****        -8.5000  -2.0000  23.5000 Du        
  12694 ****        -8.5000  -2.0000  23.7500 Du        
  12695 ****        -8.5000  -2.0000  24.0000 Du        
  12696 ****        -8.5000  -2.0000  24.2500 Du        
  12697 ****        -8.5000  -2.0000  24.5000 Du        
  12698 ****        -8.5000  -2.0000  24.7500 Du        
  12699 ****        -8.5000  -2.0000  25.0000 Du        
  12700 ****        -8.5000  -2.0000  26.7500 Du        
  12701 ****        -8.5000  -2.0000  27.0000 Du        
  12702 ****        -8.5000  -2.0000  27.2500 Du        
  12703 ****        -8.5000  -2.0000  27.5000 Du        
  12704 ****        -8.5000  -2.0000  27.7500 Du        
  12705 ****        -8.5000  -2.0000  28.0000 Du        
  12706 ****        -8.5000  -1.7500  22.5000 Du        
  12707 ****        -8.5000  -1.7500  22.7500 Du        
  12708 ****        -8.5000  -1.7500  23.0000 Du        
  12709 ****        -8.5000  -1.7500  23.2500 Du        
  12710 ****        -8.5000  -1.7500  23.5000 Du        
  12711 ****        -8.5000  -1.7500  23.7500 Du        
  12712 ****        -8.5000  -1.7500  24.0000 Du        
  12713 ****        -8.5000  -1.7500  24.2500 Du        
  12714 ****        -8.5000  -1.7500  24.5000 Du        
  12715 ****        -8.5000  -1.7500  24.7500 Du        
  12716 ****        -8.5000  -1.7500  25.0000 Du        
  12717 ****        -8.5000  -1.7500  26.7500 Du        
  12718 ****        -8.5000  -1.7500  27.0000 Du        
  12719 ****        -8.5000  -1.7500  27.2500 Du        
  12720 ****        -8.5000  -1.7500  27.5000 Du        
  12721 ****        -8.5000  -1.7500  27.7500 Du        
  12722 ****        -8.5000  -1.7500  28.0000 Du        
  12723 ****        -8.5000  -1.5000  22.7500 Du        
  12724 ****        -8.5000  -1.5000  23.0000 Du        
  12725 ****        -8.5000  -1.5000  23.2500 Du        
  12726 ****        -8.5000  -1.5000  23.5000 Du        
  12727 ****        -8.5000  -1.5000  23.7500 Du        
  12728 ****        -8.5000  -1.5000  24.0000 Du        
  12729 ****        -8.5000  -1.5000  24.2500 Du        
  12730 ****        -8.5000  -1.5000  24.5000 Du        
  12731 ****        -8.5000  -1.5000  24.7500 Du        
  12732 ****        -8.5000  -1.5000  27.5000 Du        
  12733 ****        -8.5000  -1.5000  27.7500 Du        
  12734 ****        -8.5000  -1.2500  23.0000 Du        
  12735 ****        -8.5000  -1.2500  23.2500 Du        
  12736 ****        -8.5000  -1.2500  23.5000 Du        
  12737 ****        -8.5000  -1.2500  23.7500 Du        
  12738 ****        -8.5000  -1.2500  24.0000 Du        
  12739 ****        -8.5000  -1.2500  24.2500 Du        
  12740 ****        -8.5000  -1.2500  24.5000 Du        
  12741 ****        -8.5000  -1.2500  24.7500 Du        
  12742 ****        -8.5000  -1.0000  23.2500 Du        
  12743 ****        -8.5000  -1.0000  23.5000 Du        
  12744 ****        -8.5000  -1.0000  23.7500 Du        
  12745 ****        -8.5000  -1.0000  24.0000 Du        
  12746 ****        -8.5000  -1.0000  24.2500 Du        
  12747 ****        -8.5000  -1.0000  24.5000 Du        
  12748 ****        -8.5000  -1.0000  24.7500 Du        
  12749 ****        -8.5000  -0.7500  23.2500 Du        
  12750 ****        -8.5000  -0.7500  23.5000 Du        
  12751 ****        -8.5000  -0.7500  23.7500 Du        
  12752 ****        -8.5000  -0.7500  24.0000 Du        
  12753 ****        -8.5000  -0.7500  24.2500 Du        
  12754 ****        -8.5000  -0.7500  24.5000 Du        
  12755 ****        -8.5000  -0.7500  24.7500 Du        
  12756 ****        -8.5000  -0.5000  23.5000 Du        
  12757 ****        -8.5000  -0.5000  23.7500 Du        
  12758 ****        -8.5000  -0.5000  24.0000 Du        
  12759 ****        -8.5000  -0.5000  24.2500 Du        
  12760 ****        -8.5000  -0.5000  24.5000 Du        
  12761 ****        -8.5000  -0.5000  24.7500 Du        
  12762 ****        -8.5000  -0.2500  23.7500 Du        
  12763 ****        -8.5000  -0.2500  24.0000 Du        
  12764 ****        -8.5000  -0.2500  24.2500 Du        
  12765 ****        -8.5000  -0.2500  24.5000 Du        
  12766 ****        -8.5000  -0.2500  24.7500 Du        
  12767 ****        -8.5000   0.0000  23.7500 Du        
  12768 ****        -8.5000   0.0000  24.0000 Du        
  12769 ****        -8.5000   0.0000  24.2500 Du        
  12770 ****        -8.5000   0.0000  24.5000 Du        
  12771 ****        -8.5000   0.0000  24.7500 Du        
  12772 ****        -8.5000   0.2500  23.7500 Du        
  12773 ****        -8.5000   0.2500  24.0000 Du        
  12774 ****        -8.5000   0.2500  24.2500 Du        
  12775 ****        -8.5000   0.2500  24.5000 Du        
  12776 ****        -8.5000   0.2500  24.7500 Du        
  12777 ****        -8.5000   0.5000  24.0000 Du        
  12778 ****        -8.5000   0.5000  24.2500 Du        
  12779 ****        -8.5000   0.5000  24.5000 Du        
  12780 ****        -8.5000   0.5000  24.7500 Du        
  12781 ****        -8.5000   0.5000  25.0000 Du        
  12782 ****        -8.5000   0.7500  24.0000 Du        
  12783 ****        -8.5000   0.7500  24.2500 Du        
  12784 ****        -8.5000   0.7500  24.5000 Du        
  12785 ****        -8.5000   0.7500  24.7500 Du        
  12786 ****        -8.5000   0.7500  25.0000 Du        
  12787 ****        -8.5000   1.0000  24.0000 Du        
  12788 ****        -8.5000   1.0000  24.2500 Du        
  12789 ****        -8.5000   1.0000  24.5000 Du        
  12790 ****        -8.5000   1.0000  24.7500 Du        
  12791 ****        -8.5000   1.0000  25.0000 Du        
  12792 ****        -8.5000   1.0000  25.2500 Du        
  12793 ****        -8.5000   1.2500  24.0000 Du        
  12794 ****        -8.5000   1.2500  24.2500 Du        
  12795 ****        -8.5000   1.2500  24.5000 Du        
  12796 ****        -8.5000   1.2500  24.7500 Du        
  12797 ****        -8.5000   1.2500  25.0000 Du        
  12798 ****        -8.5000   1.2500  25.2500 Du        
  12799 ****        -8.5000   1.5000  24.0000 Du        
  12800 ****        -8.5000   1.5000  24.2500 Du        
  12801 ****        -8.5000   1.5000  24.5000 Du        
  12802 ****        -8.5000   1.5000  24.7500 Du        
  12803 ****        -8.5000   1.5000  25.0000 Du        
  12804 ****        -8.5000   1.5000  25.2500 Du        
  12805 ****        -8.5000   1.7500  24.0000 Du        
  12806 ****        -8.5000   1.7500  24.2500 Du        
  12807 ****        -8.5000   1.7500  24.5000 Du        
  12808 ****        -8.5000   1.7500  24.7500 Du        
  12809 ****        -8.5000   1.7500  25.0000 Du        
  12810 ****        -8.5000   1.7500  25.2500 Du        
  12811 ****        -8.5000   2.0000  24.0000 Du        
  12812 ****        -8.5000   2.0000  24.2500 Du        
  12813 ****        -8.5000   2.0000  24.5000 Du        
  12814 ****        -8.5000   2.0000  24.7500 Du        
  12815 ****        -8.5000   2.0000  25.0000 Du        
  12816 ****        -8.5000   2.0000  25.2500 Du        
  12817 ****        -8.5000   2.0000  25.5000 Du        
  12818 ****        -8.5000   2.2500  24.0000 Du        
  12819 ****        -8.5000   2.2500  24.2500 Du        
  12820 ****        -8.5000   2.2500  24.5000 Du        
  12821 ****        -8.5000   2.2500  24.7500 Du        
  12822 ****        -8.5000   2.2500  25.0000 Du        
  12823 ****        -8.5000   2.2500  25.2500 Du        
  12824 ****        -8.5000   2.2500  25.5000 Du        
  12825 ****        -8.5000   2.5000  24.0000 Du        
  12826 ****        -8.5000   2.5000  24.2500 Du        
  12827 ****        -8.5000   2.5000  24.5000 Du        
  12828 ****        -8.5000   2.5000  24.7500 Du        
  12829 ****        -8.5000   2.5000  25.0000 Du        
  12830 ****        -8.5000   2.5000  25.2500 Du        
  12831 ****        -8.5000   2.5000  25.5000 Du        
  12832 ****        -8.5000   2.7500  24.0000 Du        
  12833 ****        -8.5000   2.7500  24.2500 Du        
  12834 ****        -8.5000   2.7500  24.5000 Du        
  12835 ****        -8.5000   2.7500  24.7500 Du        
  12836 ****        -8.5000   2.7500  25.0000 Du        
  12837 ****        -8.5000   2.7500  25.2500 Du        
  12838 ****        -8.5000   2.7500  25.5000 Du        
  12839 ****        -8.5000   2.7500  25.7500 Du        
  12840 ****        -8.5000   3.0000  24.0000 Du        
  12841 ****        -8.5000   3.0000  24.2500 Du        
  12842 ****        -8.5000   3.0000  24.5000 Du        
  12843 ****        -8.5000   3.0000  24.7500 Du        
  12844 ****        -8.5000   3.0000  25.0000 Du        
  12845 ****        -8.5000   3.0000  25.2500 Du        
  12846 ****        -8.5000   3.0000  25.5000 Du        
  12847 ****        -8.5000   3.0000  25.7500 Du        
  12848 ****        -8.5000   3.2500  24.0000 Du        
  12849 ****        -8.5000   3.2500  24.2500 Du        
  12850 ****        -8.5000   3.2500  24.5000 Du        
  12851 ****        -8.5000   3.2500  24.7500 Du        
  12852 ****        -8.5000   3.2500  25.0000 Du        
  12853 ****        -8.5000   3.2500  25.2500 Du        
  12854 ****        -8.5000   3.2500  25.5000 Du        
  12855 ****        -8.5000   3.2500  25.7500 Du        
  12856 ****        -8.5000   3.5000  24.2500 Du        
  12857 ****        -8.5000   3.5000  24.5000 Du        
  12858 ****        -8.5000   3.5000  24.7500 Du        
  12859 ****        -8.5000   3.5000  25.0000 Du        
  12860 ****        -8.5000   3.5000  25.2500 Du        
  12861 ****        -8.5000   3.5000  25.5000 Du        
  12862 ****        -8.5000   3.5000  25.7500 Du        
  12863 ****        -8.5000   3.5000  26.0000 Du        
  12864 ****        -8.5000   3.7500  24.5000 Du        
  12865 ****        -8.5000   3.7500  24.7500 Du        
  12866 ****        -8.5000   3.7500  25.0000 Du        
  12867 ****        -8.5000   3.7500  25.2500 Du        
  12868 ****        -8.5000   3.7500  25.5000 Du        
  12869 ****        -8.5000   3.7500  25.7500 Du        
  12870 ****        -8.5000   3.7500  26.0000 Du        
  12871 ****        -8.5000   4.0000  24.7500 Du        
  12872 ****        -8.5000   4.0000  25.0000 Du        
  12873 ****        -8.5000   4.0000  25.2500 Du        
  12874 ****        -8.5000   4.0000  25.5000 Du        
  12875 ****        -8.5000   4.0000  25.7500 Du        
  12876 ****        -8.5000   4.0000  26.0000 Du        
  12877 ****        -8.5000   4.2500  25.7500 Du        
  12878 ****        -8.5000   4.2500  26.0000 Du        
  12879 ****        -8.2500 -14.0000  16.5000 Du        
  12880 ****        -8.2500 -14.0000  16.7500 Du        
  12881 ****        -8.2500 -14.0000  17.0000 Du        
  12882 ****        -8.2500 -14.0000  17.2500 Du        
  12883 ****        -8.2500 -14.0000  17.5000 Du        
  12884 ****        -8.2500 -14.0000  17.7500 Du        
  12885 ****        -8.2500 -14.0000  18.0000 Du        
  12886 ****        -8.2500 -14.0000  18.2500 Du        
  12887 ****        -8.2500 -14.0000  18.5000 Du        
  12888 ****        -8.2500 -14.0000  18.7500 Du        
  12889 ****        -8.2500 -14.0000  19.0000 Du        
  12890 ****        -8.2500 -13.7500  16.5000 Du        
  12891 ****        -8.2500 -13.7500  16.7500 Du        
  12892 ****        -8.2500 -13.7500  17.0000 Du        
  12893 ****        -8.2500 -13.7500  17.2500 Du        
  12894 ****        -8.2500 -13.7500  17.5000 Du        
  12895 ****        -8.2500 -13.7500  17.7500 Du        
  12896 ****        -8.2500 -13.7500  18.0000 Du        
  12897 ****        -8.2500 -13.7500  18.2500 Du        
  12898 ****        -8.2500 -13.7500  18.5000 Du        
  12899 ****        -8.2500 -13.7500  18.7500 Du        
  12900 ****        -8.2500 -13.7500  19.0000 Du        
  12901 ****        -8.2500 -13.7500  19.2500 Du        
  12902 ****        -8.2500 -13.5000  15.0000 Du        
  12903 ****        -8.2500 -13.5000  15.2500 Du        
  12904 ****        -8.2500 -13.5000  15.5000 Du        
  12905 ****        -8.2500 -13.5000  15.7500 Du        
  12906 ****        -8.2500 -13.5000  16.0000 Du        
  12907 ****        -8.2500 -13.5000  16.2500 Du        
  12908 ****        -8.2500 -13.5000  16.5000 Du        
  12909 ****        -8.2500 -13.5000  16.7500 Du        
  12910 ****        -8.2500 -13.5000  17.0000 Du        
  12911 ****        -8.2500 -13.5000  17.2500 Du        
  12912 ****        -8.2500 -13.5000  17.5000 Du        
  12913 ****        -8.2500 -13.5000  17.7500 Du        
  12914 ****        -8.2500 -13.5000  18.0000 Du        
  12915 ****        -8.2500 -13.5000  18.2500 Du        
  12916 ****        -8.2500 -13.5000  18.5000 Du        
  12917 ****        -8.2500 -13.5000  18.7500 Du        
  12918 ****        -8.2500 -13.5000  19.0000 Du        
  12919 ****        -8.2500 -13.5000  19.2500 Du        
  12920 ****        -8.2500 -13.2500  15.0000 Du        
  12921 ****        -8.2500 -13.2500  15.2500 Du        
  12922 ****        -8.2500 -13.2500  15.5000 Du        
  12923 ****        -8.2500 -13.2500  15.7500 Du        
  12924 ****        -8.2500 -13.2500  16.0000 Du        
  12925 ****        -8.2500 -13.2500  16.2500 Du        
  12926 ****        -8.2500 -13.2500  16.5000 Du        
  12927 ****        -8.2500 -13.2500  16.7500 Du        
  12928 ****        -8.2500 -13.2500  17.0000 Du        
  12929 ****        -8.2500 -13.2500  17.2500 Du        
  12930 ****        -8.2500 -13.2500  17.5000 Du        
  12931 ****        -8.2500 -13.2500  17.7500 Du        
  12932 ****        -8.2500 -13.2500  18.0000 Du        
  12933 ****        -8.2500 -13.2500  18.2500 Du        
  12934 ****        -8.2500 -13.2500  18.5000 Du        
  12935 ****        -8.2500 -13.2500  18.7500 Du        
  12936 ****        -8.2500 -13.2500  19.0000 Du        
  12937 ****        -8.2500 -13.2500  19.2500 Du        
  12938 ****        -8.2500 -13.0000  14.7500 Du        
  12939 ****        -8.2500 -13.0000  15.0000 Du        
  12940 ****        -8.2500 -13.0000  15.2500 Du        
  12941 ****        -8.2500 -13.0000  15.5000 Du        
  12942 ****        -8.2500 -13.0000  15.7500 Du        
  12943 ****        -8.2500 -13.0000  16.0000 Du        
  12944 ****        -8.2500 -13.0000  16.2500 Du        
  12945 ****        -8.2500 -13.0000  16.5000 Du        
  12946 ****        -8.2500 -13.0000  16.7500 Du        
  12947 ****        -8.2500 -13.0000  17.0000 Du        
  12948 ****        -8.2500 -13.0000  17.2500 Du        
  12949 ****        -8.2500 -13.0000  17.5000 Du        
  12950 ****        -8.2500 -13.0000  17.7500 Du        
  12951 ****        -8.2500 -13.0000  18.0000 Du        
  12952 ****        -8.2500 -13.0000  18.2500 Du        
  12953 ****        -8.2500 -13.0000  18.5000 Du        
  12954 ****        -8.2500 -13.0000  18.7500 Du        
  12955 ****        -8.2500 -13.0000  19.0000 Du        
  12956 ****        -8.2500 -13.0000  19.2500 Du        
  12957 ****        -8.2500 -12.7500  14.7500 Du        
  12958 ****        -8.2500 -12.7500  15.0000 Du        
  12959 ****        -8.2500 -12.7500  15.2500 Du        
  12960 ****        -8.2500 -12.7500  15.5000 Du        
  12961 ****        -8.2500 -12.7500  15.7500 Du        
  12962 ****        -8.2500 -12.7500  16.0000 Du        
  12963 ****        -8.2500 -12.7500  16.2500 Du        
  12964 ****        -8.2500 -12.7500  16.5000 Du        
  12965 ****        -8.2500 -12.7500  16.7500 Du        
  12966 ****        -8.2500 -12.7500  17.0000 Du        
  12967 ****        -8.2500 -12.7500  17.2500 Du        
  12968 ****        -8.2500 -12.7500  17.5000 Du        
  12969 ****        -8.2500 -12.7500  17.7500 Du        
  12970 ****        -8.2500 -12.7500  18.0000 Du        
  12971 ****        -8.2500 -12.7500  18.2500 Du        
  12972 ****        -8.2500 -12.7500  18.5000 Du        
  12973 ****        -8.2500 -12.7500  18.7500 Du        
  12974 ****        -8.2500 -12.7500  19.0000 Du        
  12975 ****        -8.2500 -12.5000  14.7500 Du        
  12976 ****        -8.2500 -12.5000  15.0000 Du        
  12977 ****        -8.2500 -12.5000  15.2500 Du        
  12978 ****        -8.2500 -12.5000  15.5000 Du        
  12979 ****        -8.2500 -12.5000  15.7500 Du        
  12980 ****        -8.2500 -12.5000  16.0000 Du        
  12981 ****        -8.2500 -12.5000  16.2500 Du        
  12982 ****        -8.2500 -12.5000  18.0000 Du        
  12983 ****        -8.2500 -12.5000  18.2500 Du        
  12984 ****        -8.2500 -12.5000  18.5000 Du        
  12985 ****        -8.2500 -12.5000  18.7500 Du        
  12986 ****        -8.2500 -12.5000  19.0000 Du        
  12987 ****        -8.2500 -12.2500  14.7500 Du        
  12988 ****        -8.2500 -12.2500  15.0000 Du        
  12989 ****        -8.2500 -12.2500  15.2500 Du        
  12990 ****        -8.2500 -12.2500  15.5000 Du        
  12991 ****        -8.2500 -12.2500  15.7500 Du        
  12992 ****        -8.2500 -12.2500  16.0000 Du        
  12993 ****        -8.2500 -12.2500  16.2500 Du        
  12994 ****        -8.2500 -12.2500  18.2500 Du        
  12995 ****        -8.2500 -12.2500  18.5000 Du        
  12996 ****        -8.2500 -12.2500  18.7500 Du        
  12997 ****        -8.2500 -12.2500  19.0000 Du        
  12998 ****        -8.2500 -12.0000  14.7500 Du        
  12999 ****        -8.2500 -12.0000  15.0000 Du        
  13000 ****        -8.2500 -12.0000  15.2500 Du        
  13001 ****        -8.2500 -12.0000  15.5000 Du        
  13002 ****        -8.2500 -12.0000  15.7500 Du        
  13003 ****        -8.2500 -12.0000  16.0000 Du        
  13004 ****        -8.2500 -12.0000  18.5000 Du        
  13005 ****        -8.2500 -12.0000  18.7500 Du        
  13006 ****        -8.2500 -12.0000  19.0000 Du        
  13007 ****        -8.2500 -12.0000  19.2500 Du        
  13008 ****        -8.2500 -11.7500  14.7500 Du        
  13009 ****        -8.2500 -11.7500  15.0000 Du        
  13010 ****        -8.2500 -11.7500  15.2500 Du        
  13011 ****        -8.2500 -11.7500  15.5000 Du        
  13012 ****        -8.2500 -11.7500  15.7500 Du        
  13013 ****        -8.2500 -11.7500  18.5000 Du        
  13014 ****        -8.2500 -11.7500  18.7500 Du        
  13015 ****        -8.2500 -11.7500  19.0000 Du        
  13016 ****        -8.2500 -11.7500  19.2500 Du        
  13017 ****        -8.2500 -11.5000  14.7500 Du        
  13018 ****        -8.2500 -11.5000  15.0000 Du        
  13019 ****        -8.2500 -11.5000  15.2500 Du        
  13020 ****        -8.2500 -11.5000  15.5000 Du        
  13021 ****        -8.2500 -11.5000  15.7500 Du        
  13022 ****        -8.2500 -11.5000  18.7500 Du        
  13023 ****        -8.2500 -11.5000  19.0000 Du        
  13024 ****        -8.2500 -11.2500  14.7500 Du        
  13025 ****        -8.2500 -11.2500  15.0000 Du        
  13026 ****        -8.2500 -11.2500  15.2500 Du        
  13027 ****        -8.2500 -11.2500  15.5000 Du        
  13028 ****        -8.2500 -11.2500  18.7500 Du        
  13029 ****        -8.2500 -11.2500  19.0000 Du        
  13030 ****        -8.2500 -11.2500  19.2500 Du        
  13031 ****        -8.2500 -11.0000  14.5000 Du        
  13032 ****        -8.2500 -11.0000  14.7500 Du        
  13033 ****        -8.2500 -11.0000  15.0000 Du        
  13034 ****        -8.2500 -11.0000  15.2500 Du        
  13035 ****        -8.2500 -11.0000  19.0000 Du        
  13036 ****        -8.2500 -11.0000  19.2500 Du        
  13037 ****        -8.2500 -10.7500  14.5000 Du        
  13038 ****        -8.2500 -10.7500  14.7500 Du        
  13039 ****        -8.2500 -10.7500  15.0000 Du        
  13040 ****        -8.2500 -10.7500  23.7500 Du        
  13041 ****        -8.2500 -10.5000  14.5000 Du        
  13042 ****        -8.2500 -10.5000  14.7500 Du        
  13043 ****        -8.2500 -10.5000  15.0000 Du        
  13044 ****        -8.2500 -10.5000  23.7500 Du        
  13045 ****        -8.2500 -10.2500  14.2500 Du        
  13046 ****        -8.2500 -10.2500  14.5000 Du        
  13047 ****        -8.2500 -10.2500  14.7500 Du        
  13048 ****        -8.2500 -10.0000  14.2500 Du        
  13049 ****        -8.2500 -10.0000  14.5000 Du        
  13050 ****        -8.2500 -10.0000  14.7500 Du        
  13051 ****        -8.2500 -10.0000  20.0000 Du        
  13052 ****        -8.2500  -9.7500  14.2500 Du        
  13053 ****        -8.2500  -9.7500  14.5000 Du        
  13054 ****        -8.2500  -9.7500  20.0000 Du        
  13055 ****        -8.2500  -9.7500  20.2500 Du        
  13056 ****        -8.2500  -9.5000  20.0000 Du        
  13057 ****        -8.2500  -9.5000  20.2500 Du        
  13058 ****        -8.2500  -9.2500  20.0000 Du        
  13059 ****        -8.2500  -9.2500  20.2500 Du        
  13060 ****        -8.2500  -9.0000  20.0000 Du        
  13061 ****        -8.2500  -8.7500  19.7500 Du        
  13062 ****        -8.2500  -8.7500  20.0000 Du        
  13063 ****        -8.2500  -8.5000  19.7500 Du        
  13064 ****        -8.2500  -8.5000  20.0000 Du        
  13065 ****        -8.2500  -8.2500  19.7500 Du        
  13066 ****        -8.2500  -8.2500  20.0000 Du        
  13067 ****        -8.2500  -8.0000  19.2500 Du        
  13068 ****        -8.2500  -8.0000  19.5000 Du        
  13069 ****        -8.2500  -8.0000  19.7500 Du        
  13070 ****        -8.2500  -8.0000  20.0000 Du        
  13071 ****        -8.2500  -7.7500  19.0000 Du        
  13072 ****        -8.2500  -7.7500  19.2500 Du        
  13073 ****        -8.2500  -7.7500  19.5000 Du        
  13074 ****        -8.2500  -7.7500  19.7500 Du        
  13075 ****        -8.2500  -7.7500  20.0000 Du        
  13076 ****        -8.2500  -7.5000  18.5000 Du        
  13077 ****        -8.2500  -7.5000  18.7500 Du        
  13078 ****        -8.2500  -7.5000  19.0000 Du        
  13079 ****        -8.2500  -7.5000  19.2500 Du        
  13080 ****        -8.2500  -7.5000  19.5000 Du        
  13081 ****        -8.2500  -7.5000  19.7500 Du        
  13082 ****        -8.2500  -7.5000  20.0000 Du        
  13083 ****        -8.2500  -7.2500  17.2500 Du        
  13084 ****        -8.2500  -7.2500  17.5000 Du        
  13085 ****        -8.2500  -7.2500  17.7500 Du        
  13086 ****        -8.2500  -7.2500  18.0000 Du        
  13087 ****        -8.2500  -7.2500  18.2500 Du        
  13088 ****        -8.2500  -7.2500  18.5000 Du        
  13089 ****        -8.2500  -7.2500  18.7500 Du        
  13090 ****        -8.2500  -7.2500  19.0000 Du        
  13091 ****        -8.2500  -7.2500  19.2500 Du        
  13092 ****        -8.2500  -7.2500  19.5000 Du        
  13093 ****        -8.2500  -7.2500  19.7500 Du        
  13094 ****        -8.2500  -7.0000  16.7500 Du        
  13095 ****        -8.2500  -7.0000  17.0000 Du        
  13096 ****        -8.2500  -7.0000  17.2500 Du        
  13097 ****        -8.2500  -7.0000  17.5000 Du        
  13098 ****        -8.2500  -7.0000  17.7500 Du        
  13099 ****        -8.2500  -7.0000  18.0000 Du        
  13100 ****        -8.2500  -7.0000  18.2500 Du        
  13101 ****        -8.2500  -7.0000  18.5000 Du        
  13102 ****        -8.2500  -7.0000  18.7500 Du        
  13103 ****        -8.2500  -7.0000  19.0000 Du        
  13104 ****        -8.2500  -7.0000  19.2500 Du        
  13105 ****        -8.2500  -7.0000  19.5000 Du        
  13106 ****        -8.2500  -7.0000  19.7500 Du        
  13107 ****        -8.2500  -7.0000  20.0000 Du        
  13108 ****        -8.2500  -6.7500  16.5000 Du        
  13109 ****        -8.2500  -6.7500  16.7500 Du        
  13110 ****        -8.2500  -6.7500  17.0000 Du        
  13111 ****        -8.2500  -6.7500  17.2500 Du        
  13112 ****        -8.2500  -6.7500  17.5000 Du        
  13113 ****        -8.2500  -6.7500  17.7500 Du        
  13114 ****        -8.2500  -6.7500  18.0000 Du        
  13115 ****        -8.2500  -6.7500  18.2500 Du        
  13116 ****        -8.2500  -6.7500  18.5000 Du        
  13117 ****        -8.2500  -6.7500  18.7500 Du        
  13118 ****        -8.2500  -6.7500  19.0000 Du        
  13119 ****        -8.2500  -6.7500  19.2500 Du        
  13120 ****        -8.2500  -6.7500  19.5000 Du        
  13121 ****        -8.2500  -6.7500  19.7500 Du        
  13122 ****        -8.2500  -6.7500  20.0000 Du        
  13123 ****        -8.2500  -6.5000  16.5000 Du        
  13124 ****        -8.2500  -6.5000  16.7500 Du        
  13125 ****        -8.2500  -6.5000  17.0000 Du        
  13126 ****        -8.2500  -6.5000  17.2500 Du        
  13127 ****        -8.2500  -6.5000  17.5000 Du        
  13128 ****        -8.2500  -6.5000  17.7500 Du        
  13129 ****        -8.2500  -6.5000  18.0000 Du        
  13130 ****        -8.2500  -6.5000  18.2500 Du        
  13131 ****        -8.2500  -6.5000  18.5000 Du        
  13132 ****        -8.2500  -6.5000  18.7500 Du        
  13133 ****        -8.2500  -6.5000  19.0000 Du        
  13134 ****        -8.2500  -6.5000  19.2500 Du        
  13135 ****        -8.2500  -6.5000  19.5000 Du        
  13136 ****        -8.2500  -6.5000  19.7500 Du        
  13137 ****        -8.2500  -6.5000  20.0000 Du        
  13138 ****        -8.2500  -6.2500  16.7500 Du        
  13139 ****        -8.2500  -6.2500  17.0000 Du        
  13140 ****        -8.2500  -6.2500  17.2500 Du        
  13141 ****        -8.2500  -6.2500  17.5000 Du        
  13142 ****        -8.2500  -6.2500  17.7500 Du        
  13143 ****        -8.2500  -6.2500  18.0000 Du        
  13144 ****        -8.2500  -6.2500  18.2500 Du        
  13145 ****        -8.2500  -6.2500  18.5000 Du        
  13146 ****        -8.2500  -6.2500  18.7500 Du        
  13147 ****        -8.2500  -6.2500  19.0000 Du        
  13148 ****        -8.2500  -6.2500  19.2500 Du        
  13149 ****        -8.2500  -6.2500  19.5000 Du        
  13150 ****        -8.2500  -6.2500  19.7500 Du        
  13151 ****        -8.2500  -6.2500  20.0000 Du        
  13152 ****        -8.2500  -6.0000  17.2500 Du        
  13153 ****        -8.2500  -6.0000  17.5000 Du        
  13154 ****        -8.2500  -6.0000  17.7500 Du        
  13155 ****        -8.2500  -6.0000  18.0000 Du        
  13156 ****        -8.2500  -6.0000  18.2500 Du        
  13157 ****        -8.2500  -6.0000  18.5000 Du        
  13158 ****        -8.2500  -6.0000  18.7500 Du        
  13159 ****        -8.2500  -6.0000  19.0000 Du        
  13160 ****        -8.2500  -6.0000  19.2500 Du        
  13161 ****        -8.2500  -6.0000  19.5000 Du        
  13162 ****        -8.2500  -6.0000  19.7500 Du        
  13163 ****        -8.2500  -6.0000  20.0000 Du        
  13164 ****        -8.2500  -5.7500  17.7500 Du        
  13165 ****        -8.2500  -5.7500  18.0000 Du        
  13166 ****        -8.2500  -5.7500  18.2500 Du        
  13167 ****        -8.2500  -5.7500  18.5000 Du        
  13168 ****        -8.2500  -5.7500  18.7500 Du        
  13169 ****        -8.2500  -5.7500  19.0000 Du        
  13170 ****        -8.2500  -5.7500  19.2500 Du        
  13171 ****        -8.2500  -5.7500  19.5000 Du        
  13172 ****        -8.2500  -5.7500  19.7500 Du        
  13173 ****        -8.2500  -5.7500  20.0000 Du        
  13174 ****        -8.2500  -5.5000  18.2500 Du        
  13175 ****        -8.2500  -5.5000  18.5000 Du        
  13176 ****        -8.2500  -5.5000  18.7500 Du        
  13177 ****        -8.2500  -5.5000  19.0000 Du        
  13178 ****        -8.2500  -5.5000  19.2500 Du        
  13179 ****        -8.2500  -5.5000  19.5000 Du        
  13180 ****        -8.2500  -5.5000  19.7500 Du        
  13181 ****        -8.2500  -5.5000  20.0000 Du        
  13182 ****        -8.2500  -5.2500  18.5000 Du        
  13183 ****        -8.2500  -5.2500  18.7500 Du        
  13184 ****        -8.2500  -5.2500  19.0000 Du        
  13185 ****        -8.2500  -5.2500  19.2500 Du        
  13186 ****        -8.2500  -5.2500  19.5000 Du        
  13187 ****        -8.2500  -5.2500  19.7500 Du        
  13188 ****        -8.2500  -5.2500  20.0000 Du        
  13189 ****        -8.2500  -5.0000  19.2500 Du        
  13190 ****        -8.2500  -5.0000  19.5000 Du        
  13191 ****        -8.2500  -5.0000  19.7500 Du        
  13192 ****        -8.2500  -5.0000  20.0000 Du        
  13193 ****        -8.2500  -3.7500  21.2500 Du        
  13194 ****        -8.2500  -3.7500  21.5000 Du        
  13195 ****        -8.2500  -3.7500  21.7500 Du        
  13196 ****        -8.2500  -3.7500  22.0000 Du        
  13197 ****        -8.2500  -3.5000  21.2500 Du        
  13198 ****        -8.2500  -3.5000  21.5000 Du        
  13199 ****        -8.2500  -3.5000  21.7500 Du        
  13200 ****        -8.2500  -3.5000  22.0000 Du        
  13201 ****        -8.2500  -3.5000  22.2500 Du        
  13202 ****        -8.2500  -3.5000  22.5000 Du        
  13203 ****        -8.2500  -3.5000  22.7500 Du        
  13204 ****        -8.2500  -3.5000  23.0000 Du        
  13205 ****        -8.2500  -3.5000  23.2500 Du        
  13206 ****        -8.2500  -3.5000  23.5000 Du        
  13207 ****        -8.2500  -3.5000  23.7500 Du        
  13208 ****        -8.2500  -3.5000  24.0000 Du        
  13209 ****        -8.2500  -3.5000  24.2500 Du        
  13210 ****        -8.2500  -3.5000  24.5000 Du        
  13211 ****        -8.2500  -3.5000  24.7500 Du        
  13212 ****        -8.2500  -3.2500  21.2500 Du        
  13213 ****        -8.2500  -3.2500  21.5000 Du        
  13214 ****        -8.2500  -3.2500  21.7500 Du        
  13215 ****        -8.2500  -3.2500  22.0000 Du        
  13216 ****        -8.2500  -3.2500  22.2500 Du        
  13217 ****        -8.2500  -3.2500  22.5000 Du        
  13218 ****        -8.2500  -3.2500  22.7500 Du        
  13219 ****        -8.2500  -3.2500  23.0000 Du        
  13220 ****        -8.2500  -3.2500  23.2500 Du        
  13221 ****        -8.2500  -3.2500  23.5000 Du        
  13222 ****        -8.2500  -3.2500  23.7500 Du        
  13223 ****        -8.2500  -3.2500  24.0000 Du        
  13224 ****        -8.2500  -3.2500  24.2500 Du        
  13225 ****        -8.2500  -3.2500  24.5000 Du        
  13226 ****        -8.2500  -3.2500  24.7500 Du        
  13227 ****        -8.2500  -3.0000  21.5000 Du        
  13228 ****        -8.2500  -3.0000  21.7500 Du        
  13229 ****        -8.2500  -3.0000  22.0000 Du        
  13230 ****        -8.2500  -3.0000  22.2500 Du        
  13231 ****        -8.2500  -3.0000  22.5000 Du        
  13232 ****        -8.2500  -3.0000  22.7500 Du        
  13233 ****        -8.2500  -3.0000  23.0000 Du        
  13234 ****        -8.2500  -3.0000  23.2500 Du        
  13235 ****        -8.2500  -3.0000  23.5000 Du        
  13236 ****        -8.2500  -3.0000  23.7500 Du        
  13237 ****        -8.2500  -3.0000  24.0000 Du        
  13238 ****        -8.2500  -3.0000  24.2500 Du        
  13239 ****        -8.2500  -3.0000  24.5000 Du        
  13240 ****        -8.2500  -3.0000  24.7500 Du        
  13241 ****        -8.2500  -3.0000  27.5000 Du        
  13242 ****        -8.2500  -3.0000  27.7500 Du        
  13243 ****        -8.2500  -3.0000  28.0000 Du        
  13244 ****        -8.2500  -2.7500  21.5000 Du        
  13245 ****        -8.2500  -2.7500  21.7500 Du        
  13246 ****        -8.2500  -2.7500  22.0000 Du        
  13247 ****        -8.2500  -2.7500  22.2500 Du        
  13248 ****        -8.2500  -2.7500  22.5000 Du        
  13249 ****        -8.2500  -2.7500  22.7500 Du        
  13250 ****        -8.2500  -2.7500  23.0000 Du        
  13251 ****        -8.2500  -2.7500  23.2500 Du        
  13252 ****        -8.2500  -2.7500  23.5000 Du        
  13253 ****        -8.2500  -2.7500  23.7500 Du        
  13254 ****        -8.2500  -2.7500  24.0000 Du        
  13255 ****        -8.2500  -2.7500  24.2500 Du        
  13256 ****        -8.2500  -2.7500  24.5000 Du        
  13257 ****        -8.2500  -2.7500  24.7500 Du        
  13258 ****        -8.2500  -2.7500  27.5000 Du        
  13259 ****        -8.2500  -2.7500  27.7500 Du        
  13260 ****        -8.2500  -2.7500  28.0000 Du        
  13261 ****        -8.2500  -2.5000  21.7500 Du        
  13262 ****        -8.2500  -2.5000  22.0000 Du        
  13263 ****        -8.2500  -2.5000  22.2500 Du        
  13264 ****        -8.2500  -2.5000  22.5000 Du        
  13265 ****        -8.2500  -2.5000  22.7500 Du        
  13266 ****        -8.2500  -2.5000  23.0000 Du        
  13267 ****        -8.2500  -2.5000  23.2500 Du        
  13268 ****        -8.2500  -2.5000  23.5000 Du        
  13269 ****        -8.2500  -2.5000  23.7500 Du        
  13270 ****        -8.2500  -2.5000  24.0000 Du        
  13271 ****        -8.2500  -2.5000  24.2500 Du        
  13272 ****        -8.2500  -2.5000  24.5000 Du        
  13273 ****        -8.2500  -2.5000  24.7500 Du        
  13274 ****        -8.2500  -2.5000  27.5000 Du        
  13275 ****        -8.2500  -2.5000  27.7500 Du        
  13276 ****        -8.2500  -2.5000  28.0000 Du        
  13277 ****        -8.2500  -2.2500  22.0000 Du        
  13278 ****        -8.2500  -2.2500  22.2500 Du        
  13279 ****        -8.2500  -2.2500  22.5000 Du        
  13280 ****        -8.2500  -2.2500  22.7500 Du        
  13281 ****        -8.2500  -2.2500  23.0000 Du        
  13282 ****        -8.2500  -2.2500  23.2500 Du        
  13283 ****        -8.2500  -2.2500  23.5000 Du        
  13284 ****        -8.2500  -2.2500  23.7500 Du        
  13285 ****        -8.2500  -2.2500  24.0000 Du        
  13286 ****        -8.2500  -2.2500  24.2500 Du        
  13287 ****        -8.2500  -2.2500  24.5000 Du        
  13288 ****        -8.2500  -2.2500  24.7500 Du        
  13289 ****        -8.2500  -2.2500  27.5000 Du        
  13290 ****        -8.2500  -2.2500  27.7500 Du        
  13291 ****        -8.2500  -2.2500  28.0000 Du        
  13292 ****        -8.2500  -2.0000  22.2500 Du        
  13293 ****        -8.2500  -2.0000  22.5000 Du        
  13294 ****        -8.2500  -2.0000  22.7500 Du        
  13295 ****        -8.2500  -2.0000  23.0000 Du        
  13296 ****        -8.2500  -2.0000  23.2500 Du        
  13297 ****        -8.2500  -2.0000  23.5000 Du        
  13298 ****        -8.2500  -2.0000  23.7500 Du        
  13299 ****        -8.2500  -2.0000  24.0000 Du        
  13300 ****        -8.2500  -2.0000  24.2500 Du        
  13301 ****        -8.2500  -2.0000  24.5000 Du        
  13302 ****        -8.2500  -2.0000  27.5000 Du        
  13303 ****        -8.2500  -2.0000  27.7500 Du        
  13304 ****        -8.2500  -2.0000  28.0000 Du        
  13305 ****        -8.2500  -1.7500  22.5000 Du        
  13306 ****        -8.2500  -1.7500  22.7500 Du        
  13307 ****        -8.2500  -1.7500  23.0000 Du        
  13308 ****        -8.2500  -1.7500  23.2500 Du        
  13309 ****        -8.2500  -1.7500  23.5000 Du        
  13310 ****        -8.2500  -1.7500  23.7500 Du        
  13311 ****        -8.2500  -1.7500  24.0000 Du        
  13312 ****        -8.2500  -1.7500  24.2500 Du        
  13313 ****        -8.2500  -1.7500  24.5000 Du        
  13314 ****        -8.2500  -1.7500  27.7500 Du        
  13315 ****        -8.2500  -1.7500  28.0000 Du        
  13316 ****        -8.2500  -1.5000  22.7500 Du        
  13317 ****        -8.2500  -1.5000  23.0000 Du        
  13318 ****        -8.2500  -1.5000  23.2500 Du        
  13319 ****        -8.2500  -1.5000  23.5000 Du        
  13320 ****        -8.2500  -1.5000  23.7500 Du        
  13321 ****        -8.2500  -1.5000  24.0000 Du        
  13322 ****        -8.2500  -1.5000  24.2500 Du        
  13323 ****        -8.2500  -1.2500  23.0000 Du        
  13324 ****        -8.2500  -1.2500  23.2500 Du        
  13325 ****        -8.2500  -1.2500  23.5000 Du        
  13326 ****        -8.2500  -1.2500  23.7500 Du        
  13327 ****        -8.2500  -1.2500  24.0000 Du        
  13328 ****        -8.2500  -1.2500  24.2500 Du        
  13329 ****        -8.2500  -1.0000  23.2500 Du        
  13330 ****        -8.2500  -1.0000  23.5000 Du        
  13331 ****        -8.2500  -1.0000  23.7500 Du        
  13332 ****        -8.2500  -1.0000  24.0000 Du        
  13333 ****        -8.2500  -1.0000  24.2500 Du        
  13334 ****        -8.2500  -0.7500  23.5000 Du        
  13335 ****        -8.2500  -0.7500  23.7500 Du        
  13336 ****        -8.2500  -0.7500  24.0000 Du        
  13337 ****        -8.2500  -0.7500  24.2500 Du        
  13338 ****        -8.2500  -0.5000  23.5000 Du        
  13339 ****        -8.2500  -0.5000  23.7500 Du        
  13340 ****        -8.2500  -0.5000  24.0000 Du        
  13341 ****        -8.2500  -0.5000  24.2500 Du        
  13342 ****        -8.2500  -0.2500  23.7500 Du        
  13343 ****        -8.2500  -0.2500  24.0000 Du        
  13344 ****        -8.2500  -0.2500  24.2500 Du        
  13345 ****        -8.2500   0.0000  23.7500 Du        
  13346 ****        -8.2500   0.0000  24.0000 Du        
  13347 ****        -8.2500   0.0000  24.2500 Du        
  13348 ****        -8.2500   0.2500  24.0000 Du        
  13349 ****        -8.2500   0.2500  24.2500 Du        
  13350 ****        -8.2500   0.2500  24.5000 Du        
  13351 ****        -8.2500   0.5000  24.0000 Du        
  13352 ****        -8.2500   0.5000  24.2500 Du        
  13353 ****        -8.2500   0.5000  24.5000 Du        
  13354 ****        -8.2500   0.7500  24.0000 Du        
  13355 ****        -8.2500   0.7500  24.2500 Du        
  13356 ****        -8.2500   0.7500  24.5000 Du        
  13357 ****        -8.2500   0.7500  24.7500 Du        
  13358 ****        -8.2500   1.0000  24.0000 Du        
  13359 ****        -8.2500   1.0000  24.2500 Du        
  13360 ****        -8.2500   1.0000  24.5000 Du        
  13361 ****        -8.2500   1.0000  24.7500 Du        
  13362 ****        -8.2500   1.0000  25.0000 Du        
  13363 ****        -8.2500   1.2500  24.2500 Du        
  13364 ****        -8.2500   1.2500  24.5000 Du        
  13365 ****        -8.2500   1.2500  24.7500 Du        
  13366 ****        -8.2500   1.2500  25.0000 Du        
  13367 ****        -8.2500   1.5000  24.2500 Du        
  13368 ****        -8.2500   1.5000  24.5000 Du        
  13369 ****        -8.2500   1.5000  24.7500 Du        
  13370 ****        -8.2500   1.5000  25.0000 Du        
  13371 ****        -8.2500   1.5000  25.2500 Du        
  13372 ****        -8.2500   1.7500  24.0000 Du        
  13373 ****        -8.2500   1.7500  24.2500 Du        
  13374 ****        -8.2500   1.7500  24.5000 Du        
  13375 ****        -8.2500   1.7500  24.7500 Du        
  13376 ****        -8.2500   1.7500  25.0000 Du        
  13377 ****        -8.2500   1.7500  25.2500 Du        
  13378 ****        -8.2500   2.0000  24.0000 Du        
  13379 ****        -8.2500   2.0000  24.2500 Du        
  13380 ****        -8.2500   2.0000  24.5000 Du        
  13381 ****        -8.2500   2.0000  24.7500 Du        
  13382 ****        -8.2500   2.0000  25.0000 Du        
  13383 ****        -8.2500   2.0000  25.2500 Du        
  13384 ****        -8.2500   2.2500  24.0000 Du        
  13385 ****        -8.2500   2.2500  24.2500 Du        
  13386 ****        -8.2500   2.2500  24.5000 Du        
  13387 ****        -8.2500   2.2500  24.7500 Du        
  13388 ****        -8.2500   2.2500  25.0000 Du        
  13389 ****        -8.2500   2.2500  25.2500 Du        
  13390 ****        -8.2500   2.2500  25.5000 Du        
  13391 ****        -8.2500   2.5000  24.0000 Du        
  13392 ****        -8.2500   2.5000  24.2500 Du        
  13393 ****        -8.2500   2.5000  24.5000 Du        
  13394 ****        -8.2500   2.5000  24.7500 Du        
  13395 ****        -8.2500   2.5000  25.0000 Du        
  13396 ****        -8.2500   2.5000  25.2500 Du        
  13397 ****        -8.2500   2.5000  25.5000 Du        
  13398 ****        -8.2500   2.7500  24.0000 Du        
  13399 ****        -8.2500   2.7500  24.2500 Du        
  13400 ****        -8.2500   2.7500  24.5000 Du        
  13401 ****        -8.2500   2.7500  24.7500 Du        
  13402 ****        -8.2500   2.7500  25.0000 Du        
  13403 ****        -8.2500   2.7500  25.2500 Du        
  13404 ****        -8.2500   2.7500  25.5000 Du        
  13405 ****        -8.2500   3.0000  24.0000 Du        
  13406 ****        -8.2500   3.0000  24.2500 Du        
  13407 ****        -8.2500   3.0000  24.5000 Du        
  13408 ****        -8.2500   3.0000  24.7500 Du        
  13409 ****        -8.2500   3.0000  25.0000 Du        
  13410 ****        -8.2500   3.0000  25.2500 Du        
  13411 ****        -8.2500   3.0000  25.5000 Du        
  13412 ****        -8.2500   3.2500  24.0000 Du        
  13413 ****        -8.2500   3.2500  24.2500 Du        
  13414 ****        -8.2500   3.2500  24.5000 Du        
  13415 ****        -8.2500   3.2500  24.7500 Du        
  13416 ****        -8.2500   3.2500  25.0000 Du        
  13417 ****        -8.2500   3.2500  25.2500 Du        
  13418 ****        -8.2500   3.2500  25.5000 Du        
  13419 ****        -8.2500   3.2500  25.7500 Du        
  13420 ****        -8.2500   3.5000  24.0000 Du        
  13421 ****        -8.2500   3.5000  24.2500 Du        
  13422 ****        -8.2500   3.5000  24.5000 Du        
  13423 ****        -8.2500   3.5000  24.7500 Du        
  13424 ****        -8.2500   3.5000  25.0000 Du        
  13425 ****        -8.2500   3.5000  25.2500 Du        
  13426 ****        -8.2500   3.5000  25.5000 Du        
  13427 ****        -8.2500   3.5000  25.7500 Du        
  13428 ****        -8.2500   3.7500  24.5000 Du        
  13429 ****        -8.2500   3.7500  24.7500 Du        
  13430 ****        -8.2500   3.7500  25.0000 Du        
  13431 ****        -8.2500   3.7500  25.2500 Du        
  13432 ****        -8.2500   3.7500  25.5000 Du        
  13433 ****        -8.2500   3.7500  25.7500 Du        
  13434 ****        -8.0000 -14.0000  18.7500 Du        
  13435 ****        -8.0000 -13.7500  18.0000 Du        
  13436 ****        -8.0000 -13.7500  18.2500 Du        
  13437 ****        -8.0000 -13.7500  18.5000 Du        
  13438 ****        -8.0000 -13.7500  18.7500 Du        
  13439 ****        -8.0000 -13.7500  19.0000 Du        
  13440 ****        -8.0000 -13.5000  15.2500 Du        
  13441 ****        -8.0000 -13.5000  15.5000 Du        
  13442 ****        -8.0000 -13.5000  15.7500 Du        
  13443 ****        -8.0000 -13.5000  16.0000 Du        
  13444 ****        -8.0000 -13.5000  16.2500 Du        
  13445 ****        -8.0000 -13.5000  16.5000 Du        
  13446 ****        -8.0000 -13.5000  17.7500 Du        
  13447 ****        -8.0000 -13.5000  18.0000 Du        
  13448 ****        -8.0000 -13.5000  18.2500 Du        
  13449 ****        -8.0000 -13.5000  18.5000 Du        
  13450 ****        -8.0000 -13.5000  18.7500 Du        
  13451 ****        -8.0000 -13.5000  19.0000 Du        
  13452 ****        -8.0000 -13.2500  15.2500 Du        
  13453 ****        -8.0000 -13.2500  15.5000 Du        
  13454 ****        -8.0000 -13.2500  15.7500 Du        
  13455 ****        -8.0000 -13.2500  16.0000 Du        
  13456 ****        -8.0000 -13.2500  16.2500 Du        
  13457 ****        -8.0000 -13.2500  16.5000 Du        
  13458 ****        -8.0000 -13.2500  17.7500 Du        
  13459 ****        -8.0000 -13.2500  18.0000 Du        
  13460 ****        -8.0000 -13.2500  18.2500 Du        
  13461 ****        -8.0000 -13.2500  18.5000 Du        
  13462 ****        -8.0000 -13.2500  18.7500 Du        
  13463 ****        -8.0000 -13.2500  19.0000 Du        
  13464 ****        -8.0000 -13.0000  15.0000 Du        
  13465 ****        -8.0000 -13.0000  15.2500 Du        
  13466 ****        -8.0000 -13.0000  15.5000 Du        
  13467 ****        -8.0000 -13.0000  15.7500 Du        
  13468 ****        -8.0000 -13.0000  16.0000 Du        
  13469 ****        -8.0000 -13.0000  16.2500 Du        
  13470 ****        -8.0000 -13.0000  18.0000 Du        
  13471 ****        -8.0000 -13.0000  18.2500 Du        
  13472 ****        -8.0000 -13.0000  18.5000 Du        
  13473 ****        -8.0000 -13.0000  18.7500 Du        
  13474 ****        -8.0000 -13.0000  19.0000 Du        
  13475 ****        -8.0000 -12.7500  15.0000 Du        
  13476 ****        -8.0000 -12.7500  15.2500 Du        
  13477 ****        -8.0000 -12.7500  15.5000 Du        
  13478 ****        -8.0000 -12.7500  15.7500 Du        
  13479 ****        -8.0000 -12.7500  16.0000 Du        
  13480 ****        -8.0000 -12.7500  18.2500 Du        
  13481 ****        -8.0000 -12.7500  18.5000 Du        
  13482 ****        -8.0000 -12.7500  18.7500 Du        
  13483 ****        -8.0000 -12.7500  19.0000 Du        
  13484 ****        -8.0000 -12.5000  15.0000 Du        
  13485 ****        -8.0000 -12.5000  15.2500 Du        
  13486 ****        -8.0000 -12.5000  15.5000 Du        
  13487 ****        -8.0000 -12.5000  15.7500 Du        
  13488 ****        -8.0000 -12.5000  18.7500 Du        
  13489 ****        -8.0000 -12.2500  14.7500 Du        
  13490 ****        -8.0000 -12.2500  15.0000 Du        
  13491 ****        -8.0000 -12.2500  15.2500 Du        
  13492 ****        -8.0000 -12.2500  15.5000 Du        
  13493 ****        -8.0000 -12.2500  15.7500 Du        
  13494 ****        -8.0000 -12.0000  14.7500 Du        
  13495 ****        -8.0000 -12.0000  15.0000 Du        
  13496 ****        -8.0000 -12.0000  15.2500 Du        
  13497 ****        -8.0000 -12.0000  15.5000 Du        
  13498 ****        -8.0000 -11.7500  14.7500 Du        
  13499 ****        -8.0000 -11.7500  15.0000 Du        
  13500 ****        -8.0000 -11.7500  15.2500 Du        
  13501 ****        -8.0000 -11.7500  15.5000 Du        
  13502 ****        -8.0000 -11.5000  14.7500 Du        
  13503 ****        -8.0000 -11.5000  15.0000 Du        
  13504 ****        -8.0000 -11.5000  15.2500 Du        
  13505 ****        -8.0000 -11.2500  14.7500 Du        
  13506 ****        -8.0000 -11.2500  15.0000 Du        
  13507 ****        -8.0000  -8.0000  19.7500 Du        
  13508 ****        -8.0000  -7.7500  19.5000 Du        
  13509 ****        -8.0000  -7.7500  19.7500 Du        
  13510 ****        -8.0000  -7.5000  19.2500 Du        
  13511 ****        -8.0000  -7.5000  19.5000 Du        
  13512 ****        -8.0000  -7.5000  19.7500 Du        
  13513 ****        -8.0000  -7.2500  18.5000 Du        
  13514 ****        -8.0000  -7.2500  18.7500 Du        
  13515 ****        -8.0000  -7.2500  19.0000 Du        
  13516 ****        -8.0000  -7.2500  19.2500 Du        
  13517 ****        -8.0000  -7.2500  19.5000 Du        
  13518 ****        -8.0000  -7.2500  19.7500 Du        
  13519 ****        -8.0000  -7.0000  17.2500 Du        
  13520 ****        -8.0000  -7.0000  17.5000 Du        
  13521 ****        -8.0000  -7.0000  17.7500 Du        
  13522 ****        -8.0000  -7.0000  18.0000 Du        
  13523 ****        -8.0000  -7.0000  18.2500 Du        
  13524 ****        -8.0000  -7.0000  18.5000 Du        
  13525 ****        -8.0000  -7.0000  18.7500 Du        
  13526 ****        -8.0000  -7.0000  19.0000 Du        
  13527 ****        -8.0000  -7.0000  19.2500 Du        
  13528 ****        -8.0000  -7.0000  19.5000 Du        
  13529 ****        -8.0000  -7.0000  19.7500 Du        
  13530 ****        -8.0000  -7.0000  20.0000 Du        
  13531 ****        -8.0000  -6.7500  16.7500 Du        
  13532 ****        -8.0000  -6.7500  17.0000 Du        
  13533 ****        -8.0000  -6.7500  17.2500 Du        
  13534 ****        -8.0000  -6.7500  17.5000 Du        
  13535 ****        -8.0000  -6.7500  17.7500 Du        
  13536 ****        -8.0000  -6.7500  18.0000 Du        
  13537 ****        -8.0000  -6.7500  18.2500 Du        
  13538 ****        -8.0000  -6.7500  18.5000 Du        
  13539 ****        -8.0000  -6.7500  18.7500 Du        
  13540 ****        -8.0000  -6.7500  19.0000 Du        
  13541 ****        -8.0000  -6.7500  19.2500 Du        
  13542 ****        -8.0000  -6.7500  19.5000 Du        
  13543 ****        -8.0000  -6.7500  19.7500 Du        
  13544 ****        -8.0000  -6.7500  20.0000 Du        
  13545 ****        -8.0000  -6.5000  16.7500 Du        
  13546 ****        -8.0000  -6.5000  17.0000 Du        
  13547 ****        -8.0000  -6.5000  17.2500 Du        
  13548 ****        -8.0000  -6.5000  17.5000 Du        
  13549 ****        -8.0000  -6.5000  17.7500 Du        
  13550 ****        -8.0000  -6.5000  18.0000 Du        
  13551 ****        -8.0000  -6.5000  18.2500 Du        
  13552 ****        -8.0000  -6.5000  18.5000 Du        
  13553 ****        -8.0000  -6.5000  18.7500 Du        
  13554 ****        -8.0000  -6.5000  19.0000 Du        
  13555 ****        -8.0000  -6.5000  19.2500 Du        
  13556 ****        -8.0000  -6.5000  19.5000 Du        
  13557 ****        -8.0000  -6.5000  19.7500 Du        
  13558 ****        -8.0000  -6.5000  20.0000 Du        
  13559 ****        -8.0000  -6.2500  17.0000 Du        
  13560 ****        -8.0000  -6.2500  17.2500 Du        
  13561 ****        -8.0000  -6.2500  17.5000 Du        
  13562 ****        -8.0000  -6.2500  17.7500 Du        
  13563 ****        -8.0000  -6.2500  18.0000 Du        
  13564 ****        -8.0000  -6.2500  18.2500 Du        
  13565 ****        -8.0000  -6.2500  18.5000 Du        
  13566 ****        -8.0000  -6.2500  18.7500 Du        
  13567 ****        -8.0000  -6.2500  19.0000 Du        
  13568 ****        -8.0000  -6.2500  19.2500 Du        
  13569 ****        -8.0000  -6.2500  19.5000 Du        
  13570 ****        -8.0000  -6.2500  19.7500 Du        
  13571 ****        -8.0000  -6.2500  20.0000 Du        
  13572 ****        -8.0000  -6.0000  17.5000 Du        
  13573 ****        -8.0000  -6.0000  17.7500 Du        
  13574 ****        -8.0000  -6.0000  18.0000 Du        
  13575 ****        -8.0000  -6.0000  18.2500 Du        
  13576 ****        -8.0000  -6.0000  18.5000 Du        
  13577 ****        -8.0000  -6.0000  18.7500 Du        
  13578 ****        -8.0000  -6.0000  19.0000 Du        
  13579 ****        -8.0000  -6.0000  19.2500 Du        
  13580 ****        -8.0000  -6.0000  19.5000 Du        
  13581 ****        -8.0000  -6.0000  19.7500 Du        
  13582 ****        -8.0000  -6.0000  20.0000 Du        
  13583 ****        -8.0000  -5.7500  17.7500 Du        
  13584 ****        -8.0000  -5.7500  18.0000 Du        
  13585 ****        -8.0000  -5.7500  18.2500 Du        
  13586 ****        -8.0000  -5.7500  18.5000 Du        
  13587 ****        -8.0000  -5.7500  18.7500 Du        
  13588 ****        -8.0000  -5.7500  19.0000 Du        
  13589 ****        -8.0000  -5.7500  19.2500 Du        
  13590 ****        -8.0000  -5.7500  19.5000 Du        
  13591 ****        -8.0000  -5.7500  19.7500 Du        
  13592 ****        -8.0000  -5.7500  20.0000 Du        
  13593 ****        -8.0000  -5.5000  18.2500 Du        
  13594 ****        -8.0000  -5.5000  18.5000 Du        
  13595 ****        -8.0000  -5.5000  18.7500 Du        
  13596 ****        -8.0000  -5.5000  19.0000 Du        
  13597 ****        -8.0000  -5.5000  19.2500 Du        
  13598 ****        -8.0000  -5.5000  19.5000 Du        
  13599 ****        -8.0000  -5.5000  19.7500 Du        
  13600 ****        -8.0000  -5.5000  20.0000 Du        
  13601 ****        -8.0000  -5.2500  18.5000 Du        
  13602 ****        -8.0000  -5.2500  18.7500 Du        
  13603 ****        -8.0000  -5.2500  19.0000 Du        
  13604 ****        -8.0000  -5.2500  19.2500 Du        
  13605 ****        -8.0000  -5.2500  19.5000 Du        
  13606 ****        -8.0000  -5.2500  19.7500 Du        
  13607 ****        -8.0000  -5.2500  20.0000 Du        
  13608 ****        -8.0000  -5.2500  20.2500 Du        
  13609 ****        -8.0000  -5.0000  19.0000 Du        
  13610 ****        -8.0000  -5.0000  19.2500 Du        
  13611 ****        -8.0000  -5.0000  19.5000 Du        
  13612 ****        -8.0000  -5.0000  19.7500 Du        
  13613 ****        -8.0000  -5.0000  20.0000 Du        
  13614 ****        -8.0000  -5.0000  20.2500 Du        
  13615 ****        -8.0000  -4.0000  21.0000 Du        
  13616 ****        -8.0000  -4.0000  21.2500 Du        
  13617 ****        -8.0000  -4.0000  21.5000 Du        
  13618 ****        -8.0000  -4.0000  21.7500 Du        
  13619 ****        -8.0000  -3.7500  21.2500 Du        
  13620 ****        -8.0000  -3.7500  21.5000 Du        
  13621 ****        -8.0000  -3.7500  21.7500 Du        
  13622 ****        -8.0000  -3.7500  22.0000 Du        
  13623 ****        -8.0000  -3.7500  22.2500 Du        
  13624 ****        -8.0000  -3.7500  22.5000 Du        
  13625 ****        -8.0000  -3.5000  21.2500 Du        
  13626 ****        -8.0000  -3.5000  21.5000 Du        
  13627 ****        -8.0000  -3.5000  21.7500 Du        
  13628 ****        -8.0000  -3.5000  22.0000 Du        
  13629 ****        -8.0000  -3.5000  22.2500 Du        
  13630 ****        -8.0000  -3.5000  22.5000 Du        
  13631 ****        -8.0000  -3.5000  22.7500 Du        
  13632 ****        -8.0000  -3.5000  23.0000 Du        
  13633 ****        -8.0000  -3.5000  23.2500 Du        
  13634 ****        -8.0000  -3.5000  23.5000 Du        
  13635 ****        -8.0000  -3.5000  23.7500 Du        
  13636 ****        -8.0000  -3.5000  24.0000 Du        
  13637 ****        -8.0000  -3.5000  24.2500 Du        
  13638 ****        -8.0000  -3.5000  24.5000 Du        
  13639 ****        -8.0000  -3.2500  21.2500 Du        
  13640 ****        -8.0000  -3.2500  21.5000 Du        
  13641 ****        -8.0000  -3.2500  21.7500 Du        
  13642 ****        -8.0000  -3.2500  22.0000 Du        
  13643 ****        -8.0000  -3.2500  22.2500 Du        
  13644 ****        -8.0000  -3.2500  22.5000 Du        
  13645 ****        -8.0000  -3.2500  22.7500 Du        
  13646 ****        -8.0000  -3.2500  23.0000 Du        
  13647 ****        -8.0000  -3.2500  23.2500 Du        
  13648 ****        -8.0000  -3.2500  23.5000 Du        
  13649 ****        -8.0000  -3.2500  23.7500 Du        
  13650 ****        -8.0000  -3.2500  24.0000 Du        
  13651 ****        -8.0000  -3.2500  24.2500 Du        
  13652 ****        -8.0000  -3.2500  24.5000 Du        
  13653 ****        -8.0000  -3.0000  21.5000 Du        
  13654 ****        -8.0000  -3.0000  21.7500 Du        
  13655 ****        -8.0000  -3.0000  22.0000 Du        
  13656 ****        -8.0000  -3.0000  22.2500 Du        
  13657 ****        -8.0000  -3.0000  22.5000 Du        
  13658 ****        -8.0000  -3.0000  22.7500 Du        
  13659 ****        -8.0000  -3.0000  23.0000 Du        
  13660 ****        -8.0000  -3.0000  23.2500 Du        
  13661 ****        -8.0000  -3.0000  23.5000 Du        
  13662 ****        -8.0000  -3.0000  23.7500 Du        
  13663 ****        -8.0000  -3.0000  24.0000 Du        
  13664 ****        -8.0000  -3.0000  24.2500 Du        
  13665 ****        -8.0000  -3.0000  28.0000 Du        
  13666 ****        -8.0000  -2.7500  21.5000 Du        
  13667 ****        -8.0000  -2.7500  21.7500 Du        
  13668 ****        -8.0000  -2.7500  22.0000 Du        
  13669 ****        -8.0000  -2.7500  22.2500 Du        
  13670 ****        -8.0000  -2.7500  22.5000 Du        
  13671 ****        -8.0000  -2.7500  22.7500 Du        
  13672 ****        -8.0000  -2.7500  23.0000 Du        
  13673 ****        -8.0000  -2.7500  23.2500 Du        
  13674 ****        -8.0000  -2.7500  23.5000 Du        
  13675 ****        -8.0000  -2.7500  23.7500 Du        
  13676 ****        -8.0000  -2.7500  24.0000 Du        
  13677 ****        -8.0000  -2.7500  24.2500 Du        
  13678 ****        -8.0000  -2.7500  28.0000 Du        
  13679 ****        -8.0000  -2.5000  21.7500 Du        
  13680 ****        -8.0000  -2.5000  22.0000 Du        
  13681 ****        -8.0000  -2.5000  22.2500 Du        
  13682 ****        -8.0000  -2.5000  22.5000 Du        
  13683 ****        -8.0000  -2.5000  22.7500 Du        
  13684 ****        -8.0000  -2.5000  23.0000 Du        
  13685 ****        -8.0000  -2.5000  23.2500 Du        
  13686 ****        -8.0000  -2.5000  23.5000 Du        
  13687 ****        -8.0000  -2.5000  23.7500 Du        
  13688 ****        -8.0000  -2.5000  24.0000 Du        
  13689 ****        -8.0000  -2.5000  24.2500 Du        
  13690 ****        -8.0000  -2.5000  28.0000 Du        
  13691 ****        -8.0000  -2.2500  22.0000 Du        
  13692 ****        -8.0000  -2.2500  22.2500 Du        
  13693 ****        -8.0000  -2.2500  22.5000 Du        
  13694 ****        -8.0000  -2.2500  22.7500 Du        
  13695 ****        -8.0000  -2.2500  23.0000 Du        
  13696 ****        -8.0000  -2.2500  23.2500 Du        
  13697 ****        -8.0000  -2.2500  23.5000 Du        
  13698 ****        -8.0000  -2.2500  23.7500 Du        
  13699 ****        -8.0000  -2.2500  24.0000 Du        
  13700 ****        -8.0000  -2.2500  24.2500 Du        
  13701 ****        -8.0000  -2.2500  28.0000 Du        
  13702 ****        -8.0000  -2.0000  22.2500 Du        
  13703 ****        -8.0000  -2.0000  22.5000 Du        
  13704 ****        -8.0000  -2.0000  22.7500 Du        
  13705 ****        -8.0000  -2.0000  23.0000 Du        
  13706 ****        -8.0000  -2.0000  23.2500 Du        
  13707 ****        -8.0000  -2.0000  23.5000 Du        
  13708 ****        -8.0000  -2.0000  23.7500 Du        
  13709 ****        -8.0000  -2.0000  24.0000 Du        
  13710 ****        -8.0000  -2.0000  24.2500 Du        
  13711 ****        -8.0000  -1.7500  22.5000 Du        
  13712 ****        -8.0000  -1.7500  22.7500 Du        
  13713 ****        -8.0000  -1.7500  23.0000 Du        
  13714 ****        -8.0000  -1.7500  23.2500 Du        
  13715 ****        -8.0000  -1.7500  23.5000 Du        
  13716 ****        -8.0000  -1.7500  23.7500 Du        
  13717 ****        -8.0000  -1.7500  24.0000 Du        
  13718 ****        -8.0000  -1.5000  22.7500 Du        
  13719 ****        -8.0000  -1.5000  23.0000 Du        
  13720 ****        -8.0000  -1.5000  23.2500 Du        
  13721 ****        -8.0000  -1.5000  23.5000 Du        
  13722 ****        -8.0000  -1.5000  23.7500 Du        
  13723 ****        -8.0000  -1.5000  24.0000 Du        
  13724 ****        -8.0000  -1.2500  23.0000 Du        
  13725 ****        -8.0000  -1.2500  23.2500 Du        
  13726 ****        -8.0000  -1.2500  23.5000 Du        
  13727 ****        -8.0000  -1.2500  23.7500 Du        
  13728 ****        -8.0000  -1.2500  24.0000 Du        
  13729 ****        -8.0000  -1.0000  23.2500 Du        
  13730 ****        -8.0000  -1.0000  23.5000 Du        
  13731 ****        -8.0000  -1.0000  23.7500 Du        
  13732 ****        -8.0000  -1.0000  24.0000 Du        
  13733 ****        -8.0000  -0.7500  23.5000 Du        
  13734 ****        -8.0000  -0.7500  23.7500 Du        
  13735 ****        -8.0000  -0.7500  24.0000 Du        
  13736 ****        -8.0000  -0.5000  23.7500 Du        
  13737 ****        -8.0000  -0.5000  24.0000 Du        
  13738 ****        -8.0000   0.7500  24.2500 Du        
  13739 ****        -8.0000   1.0000  24.2500 Du        
  13740 ****        -8.0000   1.0000  24.5000 Du        
  13741 ****        -8.0000   1.2500  24.2500 Du        
  13742 ****        -8.0000   1.2500  24.5000 Du        
  13743 ****        -8.0000   1.2500  24.7500 Du        
  13744 ****        -8.0000   1.5000  24.2500 Du        
  13745 ****        -8.0000   1.5000  24.5000 Du        
  13746 ****        -8.0000   1.5000  24.7500 Du        
  13747 ****        -8.0000   1.5000  25.0000 Du        
  13748 ****        -8.0000   1.7500  24.2500 Du        
  13749 ****        -8.0000   1.7500  24.5000 Du        
  13750 ****        -8.0000   1.7500  24.7500 Du        
  13751 ****        -8.0000   1.7500  25.0000 Du        
  13752 ****        -8.0000   2.0000  24.2500 Du        
  13753 ****        -8.0000   2.0000  24.5000 Du        
  13754 ****        -8.0000   2.0000  24.7500 Du        
  13755 ****        -8.0000   2.0000  25.0000 Du        
  13756 ****        -8.0000   2.0000  25.2500 Du        
  13757 ****        -8.0000   2.2500  24.2500 Du        
  13758 ****        -8.0000   2.2500  24.5000 Du        
  13759 ****        -8.0000   2.2500  24.7500 Du        
  13760 ****        -8.0000   2.2500  25.0000 Du        
  13761 ****        -8.0000   2.2500  25.2500 Du        
  13762 ****        -8.0000   2.5000  24.2500 Du        
  13763 ****        -8.0000   2.5000  24.5000 Du        
  13764 ****        -8.0000   2.5000  24.7500 Du        
  13765 ****        -8.0000   2.5000  25.0000 Du        
  13766 ****        -8.0000   2.5000  25.2500 Du        
  13767 ****        -8.0000   2.7500  24.0000 Du        
  13768 ****        -8.0000   2.7500  24.2500 Du        
  13769 ****        -8.0000   2.7500  24.5000 Du        
  13770 ****        -8.0000   2.7500  24.7500 Du        
  13771 ****        -8.0000   2.7500  25.0000 Du        
  13772 ****        -8.0000   2.7500  25.2500 Du        
  13773 ****        -8.0000   3.0000  24.0000 Du        
  13774 ****        -8.0000   3.0000  24.2500 Du        
  13775 ****        -8.0000   3.0000  24.5000 Du        
  13776 ****        -8.0000   3.0000  24.7500 Du        
  13777 ****        -8.0000   3.0000  25.0000 Du        
  13778 ****        -8.0000   3.0000  25.2500 Du        
  13779 ****        -8.0000   3.0000  25.5000 Du        
  13780 ****        -8.0000   3.2500  24.0000 Du        
  13781 ****        -8.0000   3.2500  24.2500 Du        
  13782 ****        -8.0000   3.2500  24.5000 Du        
  13783 ****        -8.0000   3.2500  24.7500 Du        
  13784 ****        -8.0000   3.2500  25.0000 Du        
  13785 ****        -8.0000   3.2500  25.2500 Du        
  13786 ****        -8.0000   3.2500  25.5000 Du        
  13787 ****        -8.0000   3.5000  24.2500 Du        
  13788 ****        -8.0000   3.5000  24.5000 Du        
  13789 ****        -8.0000   3.5000  24.7500 Du        
  13790 ****        -8.0000   3.5000  25.0000 Du        
  13791 ****        -8.0000   3.5000  25.2500 Du        
  13792 ****        -8.0000   3.5000  25.5000 Du        
  13793 ****        -7.7500 -13.2500  15.7500 Du        
  13794 ****        -7.7500 -13.0000  15.5000 Du        
  13795 ****        -7.7500 -13.0000  15.7500 Du        
  13796 ****        -7.7500 -12.5000  15.2500 Du        
  13797 ****        -7.7500  -7.2500  19.2500 Du        
  13798 ****        -7.7500  -7.2500  19.5000 Du        
  13799 ****        -7.7500  -7.2500  19.7500 Du        
  13800 ****        -7.7500  -7.0000  18.5000 Du        
  13801 ****        -7.7500  -7.0000  18.7500 Du        
  13802 ****        -7.7500  -7.0000  19.0000 Du        
  13803 ****        -7.7500  -7.0000  19.2500 Du        
  13804 ****        -7.7500  -7.0000  19.5000 Du        
  13805 ****        -7.7500  -7.0000  19.7500 Du        
  13806 ****        -7.7500  -6.7500  17.2500 Du        
  13807 ****        -7.7500  -6.7500  17.5000 Du        
  13808 ****        -7.7500  -6.7500  17.7500 Du        
  13809 ****        -7.7500  -6.7500  18.0000 Du        
  13810 ****        -7.7500  -6.7500  18.2500 Du        
  13811 ****        -7.7500  -6.7500  18.5000 Du        
  13812 ****        -7.7500  -6.7500  18.7500 Du        
  13813 ****        -7.7500  -6.7500  19.0000 Du        
  13814 ****        -7.7500  -6.7500  19.2500 Du        
  13815 ****        -7.7500  -6.7500  19.5000 Du        
  13816 ****        -7.7500  -6.7500  19.7500 Du        
  13817 ****        -7.7500  -6.5000  17.0000 Du        
  13818 ****        -7.7500  -6.5000  17.2500 Du        
  13819 ****        -7.7500  -6.5000  17.5000 Du        
  13820 ****        -7.7500  -6.5000  17.7500 Du        
  13821 ****        -7.7500  -6.5000  18.0000 Du        
  13822 ****        -7.7500  -6.5000  18.2500 Du        
  13823 ****        -7.7500  -6.5000  18.5000 Du        
  13824 ****        -7.7500  -6.5000  18.7500 Du        
  13825 ****        -7.7500  -6.5000  19.0000 Du        
  13826 ****        -7.7500  -6.5000  19.2500 Du        
  13827 ****        -7.7500  -6.5000  19.5000 Du        
  13828 ****        -7.7500  -6.5000  19.7500 Du        
  13829 ****        -7.7500  -6.5000  20.0000 Du        
  13830 ****        -7.7500  -6.2500  17.2500 Du        
  13831 ****        -7.7500  -6.2500  17.5000 Du        
  13832 ****        -7.7500  -6.2500  17.7500 Du        
  13833 ****        -7.7500  -6.2500  18.0000 Du        
  13834 ****        -7.7500  -6.2500  18.2500 Du        
  13835 ****        -7.7500  -6.2500  18.5000 Du        
  13836 ****        -7.7500  -6.2500  18.7500 Du        
  13837 ****        -7.7500  -6.2500  19.0000 Du        
  13838 ****        -7.7500  -6.2500  19.2500 Du        
  13839 ****        -7.7500  -6.2500  19.5000 Du        
  13840 ****        -7.7500  -6.2500  19.7500 Du        
  13841 ****        -7.7500  -6.2500  20.0000 Du        
  13842 ****        -7.7500  -6.0000  17.5000 Du        
  13843 ****        -7.7500  -6.0000  17.7500 Du        
  13844 ****        -7.7500  -6.0000  18.0000 Du        
  13845 ****        -7.7500  -6.0000  18.2500 Du        
  13846 ****        -7.7500  -6.0000  18.5000 Du        
  13847 ****        -7.7500  -6.0000  18.7500 Du        
  13848 ****        -7.7500  -6.0000  19.0000 Du        
  13849 ****        -7.7500  -6.0000  19.2500 Du        
  13850 ****        -7.7500  -6.0000  19.5000 Du        
  13851 ****        -7.7500  -6.0000  19.7500 Du        
  13852 ****        -7.7500  -6.0000  20.0000 Du        
  13853 ****        -7.7500  -5.7500  18.0000 Du        
  13854 ****        -7.7500  -5.7500  18.2500 Du        
  13855 ****        -7.7500  -5.7500  18.5000 Du        
  13856 ****        -7.7500  -5.7500  18.7500 Du        
  13857 ****        -7.7500  -5.7500  19.0000 Du        
  13858 ****        -7.7500  -5.7500  19.2500 Du        
  13859 ****        -7.7500  -5.7500  19.5000 Du        
  13860 ****        -7.7500  -5.7500  19.7500 Du        
  13861 ****        -7.7500  -5.7500  20.0000 Du        
  13862 ****        -7.7500  -5.5000  18.2500 Du        
  13863 ****        -7.7500  -5.5000  18.5000 Du        
  13864 ****        -7.7500  -5.5000  18.7500 Du        
  13865 ****        -7.7500  -5.5000  19.0000 Du        
  13866 ****        -7.7500  -5.5000  19.2500 Du        
  13867 ****        -7.7500  -5.5000  19.5000 Du        
  13868 ****        -7.7500  -5.5000  19.7500 Du        
  13869 ****        -7.7500  -5.5000  20.0000 Du        
  13870 ****        -7.7500  -5.2500  18.7500 Du        
  13871 ****        -7.7500  -5.2500  19.0000 Du        
  13872 ****        -7.7500  -5.2500  19.2500 Du        
  13873 ****        -7.7500  -5.2500  19.5000 Du        
  13874 ****        -7.7500  -5.2500  19.7500 Du        
  13875 ****        -7.7500  -5.2500  20.0000 Du        
  13876 ****        -7.7500  -5.2500  20.2500 Du        
  13877 ****        -7.7500  -5.0000  19.2500 Du        
  13878 ****        -7.7500  -5.0000  19.7500 Du        
  13879 ****        -7.7500  -5.0000  20.0000 Du        
  13880 ****        -7.7500  -5.0000  20.2500 Du        
  13881 ****        -7.7500  -4.2500  21.0000 Du        
  13882 ****        -7.7500  -4.2500  21.2500 Du        
  13883 ****        -7.7500  -4.0000  21.0000 Du        
  13884 ****        -7.7500  -4.0000  21.2500 Du        
  13885 ****        -7.7500  -4.0000  21.5000 Du        
  13886 ****        -7.7500  -4.0000  21.7500 Du        
  13887 ****        -7.7500  -4.0000  22.0000 Du        
  13888 ****        -7.7500  -3.7500  21.2500 Du        
  13889 ****        -7.7500  -3.7500  21.5000 Du        
  13890 ****        -7.7500  -3.7500  21.7500 Du        
  13891 ****        -7.7500  -3.7500  22.0000 Du        
  13892 ****        -7.7500  -3.7500  22.2500 Du        
  13893 ****        -7.7500  -3.7500  22.5000 Du        
  13894 ****        -7.7500  -3.7500  22.7500 Du        
  13895 ****        -7.7500  -3.5000  21.2500 Du        
  13896 ****        -7.7500  -3.5000  21.5000 Du        
  13897 ****        -7.7500  -3.5000  21.7500 Du        
  13898 ****        -7.7500  -3.5000  22.0000 Du        
  13899 ****        -7.7500  -3.5000  22.2500 Du        
  13900 ****        -7.7500  -3.5000  22.5000 Du        
  13901 ****        -7.7500  -3.5000  22.7500 Du        
  13902 ****        -7.7500  -3.5000  23.0000 Du        
  13903 ****        -7.7500  -3.5000  23.2500 Du        
  13904 ****        -7.7500  -3.5000  23.5000 Du        
  13905 ****        -7.7500  -3.5000  23.7500 Du        
  13906 ****        -7.7500  -3.5000  24.0000 Du        
  13907 ****        -7.7500  -3.2500  21.5000 Du        
  13908 ****        -7.7500  -3.2500  21.7500 Du        
  13909 ****        -7.7500  -3.2500  22.0000 Du        
  13910 ****        -7.7500  -3.2500  22.2500 Du        
  13911 ****        -7.7500  -3.2500  22.5000 Du        
  13912 ****        -7.7500  -3.2500  22.7500 Du        
  13913 ****        -7.7500  -3.2500  23.0000 Du        
  13914 ****        -7.7500  -3.2500  23.2500 Du        
  13915 ****        -7.7500  -3.2500  23.5000 Du        
  13916 ****        -7.7500  -3.2500  23.7500 Du        
  13917 ****        -7.7500  -3.2500  24.0000 Du        
  13918 ****        -7.7500  -3.2500  24.2500 Du        
  13919 ****        -7.7500  -3.0000  21.5000 Du        
  13920 ****        -7.7500  -3.0000  21.7500 Du        
  13921 ****        -7.7500  -3.0000  22.0000 Du        
  13922 ****        -7.7500  -3.0000  22.2500 Du        
  13923 ****        -7.7500  -3.0000  22.5000 Du        
  13924 ****        -7.7500  -3.0000  22.7500 Du        
  13925 ****        -7.7500  -3.0000  23.0000 Du        
  13926 ****        -7.7500  -3.0000  23.2500 Du        
  13927 ****        -7.7500  -3.0000  23.5000 Du        
  13928 ****        -7.7500  -3.0000  23.7500 Du        
  13929 ****        -7.7500  -3.0000  24.0000 Du        
  13930 ****        -7.7500  -2.7500  21.7500 Du        
  13931 ****        -7.7500  -2.7500  22.0000 Du        
  13932 ****        -7.7500  -2.7500  22.2500 Du        
  13933 ****        -7.7500  -2.7500  22.5000 Du        
  13934 ****        -7.7500  -2.7500  22.7500 Du        
  13935 ****        -7.7500  -2.7500  23.0000 Du        
  13936 ****        -7.7500  -2.7500  23.2500 Du        
  13937 ****        -7.7500  -2.7500  23.5000 Du        
  13938 ****        -7.7500  -2.7500  23.7500 Du        
  13939 ****        -7.7500  -2.7500  24.0000 Du        
  13940 ****        -7.7500  -2.5000  22.0000 Du        
  13941 ****        -7.7500  -2.5000  22.2500 Du        
  13942 ****        -7.7500  -2.5000  22.5000 Du        
  13943 ****        -7.7500  -2.5000  22.7500 Du        
  13944 ****        -7.7500  -2.5000  23.0000 Du        
  13945 ****        -7.7500  -2.5000  23.2500 Du        
  13946 ****        -7.7500  -2.5000  23.5000 Du        
  13947 ****        -7.7500  -2.5000  23.7500 Du        
  13948 ****        -7.7500  -2.5000  24.0000 Du        
  13949 ****        -7.7500  -2.2500  22.2500 Du        
  13950 ****        -7.7500  -2.2500  22.5000 Du        
  13951 ****        -7.7500  -2.2500  22.7500 Du        
  13952 ****        -7.7500  -2.2500  23.0000 Du        
  13953 ****        -7.7500  -2.2500  23.2500 Du        
  13954 ****        -7.7500  -2.2500  23.5000 Du        
  13955 ****        -7.7500  -2.2500  23.7500 Du        
  13956 ****        -7.7500  -2.0000  22.5000 Du        
  13957 ****        -7.7500  -2.0000  22.7500 Du        
  13958 ****        -7.7500  -2.0000  23.0000 Du        
  13959 ****        -7.7500  -2.0000  23.2500 Du        
  13960 ****        -7.7500  -2.0000  23.5000 Du        
  13961 ****        -7.7500  -2.0000  23.7500 Du        
  13962 ****        -7.7500  -1.7500  22.7500 Du        
  13963 ****        -7.7500  -1.7500  23.0000 Du        
  13964 ****        -7.7500  -1.7500  23.2500 Du        
  13965 ****        -7.7500  -1.7500  23.5000 Du        
  13966 ****        -7.7500  -1.7500  23.7500 Du        
  13967 ****        -7.7500  -1.5000  23.0000 Du        
  13968 ****        -7.7500  -1.5000  23.2500 Du        
  13969 ****        -7.7500  -1.5000  23.5000 Du        
  13970 ****        -7.7500  -1.5000  23.7500 Du        
  13971 ****        -7.7500  -1.2500  23.0000 Du        
  13972 ****        -7.7500  -1.2500  23.2500 Du        
  13973 ****        -7.7500  -1.2500  23.5000 Du        
  13974 ****        -7.7500  -1.2500  23.7500 Du        
  13975 ****        -7.7500  -1.0000  23.5000 Du        
  13976 ****        -7.7500  -1.0000  23.7500 Du        
  13977 ****        -7.7500   1.7500  24.5000 Du        
  13978 ****        -7.7500   1.7500  24.7500 Du        
  13979 ****        -7.7500   2.0000  24.5000 Du        
  13980 ****        -7.7500   2.0000  24.7500 Du        
  13981 ****        -7.7500   2.0000  25.0000 Du        
  13982 ****        -7.7500   2.2500  24.2500 Du        
  13983 ****        -7.7500   2.2500  24.5000 Du        
  13984 ****        -7.7500   2.2500  24.7500 Du        
  13985 ****        -7.7500   2.2500  25.0000 Du        
  13986 ****        -7.7500   2.5000  24.2500 Du        
  13987 ****        -7.7500   2.5000  24.5000 Du        
  13988 ****        -7.7500   2.5000  24.7500 Du        
  13989 ****        -7.7500   2.5000  25.0000 Du        
  13990 ****        -7.7500   2.7500  24.2500 Du        
  13991 ****        -7.7500   2.7500  24.5000 Du        
  13992 ****        -7.7500   2.7500  24.7500 Du        
  13993 ****        -7.7500   2.7500  25.0000 Du        
  13994 ****        -7.7500   2.7500  25.2500 Du        
  13995 ****        -7.7500   3.0000  24.2500 Du        
  13996 ****        -7.7500   3.0000  24.5000 Du        
  13997 ****        -7.7500   3.0000  24.7500 Du        
  13998 ****        -7.7500   3.0000  25.0000 Du        
  13999 ****        -7.7500   3.0000  25.2500 Du        
  14000 ****        -7.7500   3.2500  24.0000 Du        
  14001 ****        -7.7500   3.2500  24.2500 Du        
  14002 ****        -7.7500   3.2500  24.5000 Du        
  14003 ****        -7.7500   3.2500  24.7500 Du        
  14004 ****        -7.7500   3.2500  25.0000 Du        
  14005 ****        -7.7500   3.2500  25.2500 Du        
  14006 ****        -7.5000  -7.0000  19.2500 Du        
  14007 ****        -7.5000  -7.0000  19.5000 Du        
  14008 ****        -7.5000  -7.0000  19.7500 Du        
  14009 ****        -7.5000  -6.7500  18.5000 Du        
  14010 ****        -7.5000  -6.7500  18.7500 Du        
  14011 ****        -7.5000  -6.7500  19.0000 Du        
  14012 ****        -7.5000  -6.7500  19.2500 Du        
  14013 ****        -7.5000  -6.7500  19.5000 Du        
  14014 ****        -7.5000  -6.7500  19.7500 Du        
  14015 ****        -7.5000  -6.5000  17.5000 Du        
  14016 ****        -7.5000  -6.5000  17.7500 Du        
  14017 ****        -7.5000  -6.5000  18.0000 Du        
  14018 ****        -7.5000  -6.5000  18.2500 Du        
  14019 ****        -7.5000  -6.5000  18.5000 Du        
  14020 ****        -7.5000  -6.5000  18.7500 Du        
  14021 ****        -7.5000  -6.5000  19.0000 Du        
  14022 ****        -7.5000  -6.5000  19.2500 Du        
  14023 ****        -7.5000  -6.5000  19.5000 Du        
  14024 ****        -7.5000  -6.5000  19.7500 Du        
  14025 ****        -7.5000  -6.2500  17.5000 Du        
  14026 ****        -7.5000  -6.2500  17.7500 Du        
  14027 ****        -7.5000  -6.2500  18.0000 Du        
  14028 ****        -7.5000  -6.2500  18.2500 Du        
  14029 ****        -7.5000  -6.2500  18.5000 Du        
  14030 ****        -7.5000  -6.2500  18.7500 Du        
  14031 ****        -7.5000  -6.2500  19.0000 Du        
  14032 ****        -7.5000  -6.2500  19.2500 Du        
  14033 ****        -7.5000  -6.2500  19.5000 Du        
  14034 ****        -7.5000  -6.2500  19.7500 Du        
  14035 ****        -7.5000  -6.2500  20.0000 Du        
  14036 ****        -7.5000  -6.0000  17.5000 Du        
  14037 ****        -7.5000  -6.0000  17.7500 Du        
  14038 ****        -7.5000  -6.0000  18.0000 Du        
  14039 ****        -7.5000  -6.0000  18.2500 Du        
  14040 ****        -7.5000  -6.0000  18.5000 Du        
  14041 ****        -7.5000  -6.0000  18.7500 Du        
  14042 ****        -7.5000  -6.0000  19.0000 Du        
  14043 ****        -7.5000  -6.0000  19.2500 Du        
  14044 ****        -7.5000  -6.0000  19.5000 Du        
  14045 ****        -7.5000  -6.0000  19.7500 Du        
  14046 ****        -7.5000  -6.0000  20.0000 Du        
  14047 ****        -7.5000  -5.7500  18.0000 Du        
  14048 ****        -7.5000  -5.7500  18.2500 Du        
  14049 ****        -7.5000  -5.7500  18.5000 Du        
  14050 ****        -7.5000  -5.7500  18.7500 Du        
  14051 ****        -7.5000  -5.7500  19.0000 Du        
  14052 ****        -7.5000  -5.7500  19.2500 Du        
  14053 ****        -7.5000  -5.7500  19.5000 Du        
  14054 ****        -7.5000  -5.7500  19.7500 Du        
  14055 ****        -7.5000  -5.7500  20.0000 Du        
  14056 ****        -7.5000  -5.5000  18.2500 Du        
  14057 ****        -7.5000  -5.5000  18.5000 Du        
  14058 ****        -7.5000  -5.5000  18.7500 Du        
  14059 ****        -7.5000  -5.5000  19.0000 Du        
  14060 ****        -7.5000  -5.5000  19.2500 Du        
  14061 ****        -7.5000  -5.5000  19.5000 Du        
  14062 ****        -7.5000  -5.5000  19.7500 Du        
  14063 ****        -7.5000  -5.5000  20.0000 Du        
  14064 ****        -7.5000  -5.2500  18.7500 Du        
  14065 ****        -7.5000  -5.2500  19.0000 Du        
  14066 ****        -7.5000  -5.2500  19.2500 Du        
  14067 ****        -7.5000  -5.2500  19.5000 Du        
  14068 ****        -7.5000  -5.2500  19.7500 Du        
  14069 ****        -7.5000  -5.2500  20.0000 Du        
  14070 ****        -7.5000  -5.2500  20.2500 Du        
  14071 ****        -7.5000  -5.0000  19.7500 Du        
  14072 ****        -7.5000  -5.0000  20.0000 Du        
  14073 ****        -7.5000  -5.0000  20.2500 Du        
  14074 ****        -7.5000  -4.7500  20.5000 Du        
  14075 ****        -7.5000  -4.2500  21.0000 Du        
  14076 ****        -7.5000  -4.2500  21.2500 Du        
  14077 ****        -7.5000  -4.2500  21.5000 Du        
  14078 ****        -7.5000  -4.0000  21.2500 Du        
  14079 ****        -7.5000  -4.0000  21.5000 Du        
  14080 ****        -7.5000  -4.0000  21.7500 Du        
  14081 ****        -7.5000  -4.0000  22.0000 Du        
  14082 ****        -7.5000  -3.7500  21.2500 Du        
  14083 ****        -7.5000  -3.7500  21.5000 Du        
  14084 ****        -7.5000  -3.7500  21.7500 Du        
  14085 ****        -7.5000  -3.7500  22.0000 Du        
  14086 ****        -7.5000  -3.7500  22.2500 Du        
  14087 ****        -7.5000  -3.7500  22.5000 Du        
  14088 ****        -7.5000  -3.7500  22.7500 Du        
  14089 ****        -7.5000  -3.5000  21.5000 Du        
  14090 ****        -7.5000  -3.5000  21.7500 Du        
  14091 ****        -7.5000  -3.5000  22.0000 Du        
  14092 ****        -7.5000  -3.5000  22.2500 Du        
  14093 ****        -7.5000  -3.5000  22.5000 Du        
  14094 ****        -7.5000  -3.5000  22.7500 Du        
  14095 ****        -7.5000  -3.5000  23.0000 Du        
  14096 ****        -7.5000  -3.5000  23.2500 Du        
  14097 ****        -7.5000  -3.5000  23.5000 Du        
  14098 ****        -7.5000  -3.5000  23.7500 Du        
  14099 ****        -7.5000  -3.2500  21.5000 Du        
  14100 ****        -7.5000  -3.2500  21.7500 Du        
  14101 ****        -7.5000  -3.2500  22.0000 Du        
  14102 ****        -7.5000  -3.2500  22.2500 Du        
  14103 ****        -7.5000  -3.2500  22.5000 Du        
  14104 ****        -7.5000  -3.2500  22.7500 Du        
  14105 ****        -7.5000  -3.2500  23.0000 Du        
  14106 ****        -7.5000  -3.2500  23.2500 Du        
  14107 ****        -7.5000  -3.2500  23.5000 Du        
  14108 ****        -7.5000  -3.2500  23.7500 Du        
  14109 ****        -7.5000  -3.2500  24.0000 Du        
  14110 ****        -7.5000  -3.0000  21.5000 Du        
  14111 ****        -7.5000  -3.0000  21.7500 Du        
  14112 ****        -7.5000  -3.0000  22.0000 Du        
  14113 ****        -7.5000  -3.0000  22.2500 Du        
  14114 ****        -7.5000  -3.0000  22.5000 Du        
  14115 ****        -7.5000  -3.0000  22.7500 Du        
  14116 ****        -7.5000  -3.0000  23.0000 Du        
  14117 ****        -7.5000  -3.0000  23.2500 Du        
  14118 ****        -7.5000  -3.0000  23.5000 Du        
  14119 ****        -7.5000  -3.0000  23.7500 Du        
  14120 ****        -7.5000  -2.7500   7.2500 Du        
  14121 ****        -7.5000  -2.7500  21.7500 Du        
  14122 ****        -7.5000  -2.7500  22.0000 Du        
  14123 ****        -7.5000  -2.7500  22.2500 Du        
  14124 ****        -7.5000  -2.7500  22.5000 Du        
  14125 ****        -7.5000  -2.7500  22.7500 Du        
  14126 ****        -7.5000  -2.7500  23.0000 Du        
  14127 ****        -7.5000  -2.7500  23.2500 Du        
  14128 ****        -7.5000  -2.7500  23.5000 Du        
  14129 ****        -7.5000  -2.7500  23.7500 Du        
  14130 ****        -7.5000  -2.5000   7.2500 Du        
  14131 ****        -7.5000  -2.5000  22.0000 Du        
  14132 ****        -7.5000  -2.5000  22.2500 Du        
  14133 ****        -7.5000  -2.5000  22.5000 Du        
  14134 ****        -7.5000  -2.5000  22.7500 Du        
  14135 ****        -7.5000  -2.5000  23.0000 Du        
  14136 ****        -7.5000  -2.5000  23.2500 Du        
  14137 ****        -7.5000  -2.5000  23.5000 Du        
  14138 ****        -7.5000  -2.5000  23.7500 Du        
  14139 ****        -7.5000  -2.2500  22.2500 Du        
  14140 ****        -7.5000  -2.2500  22.5000 Du        
  14141 ****        -7.5000  -2.2500  22.7500 Du        
  14142 ****        -7.5000  -2.2500  23.0000 Du        
  14143 ****        -7.5000  -2.2500  23.2500 Du        
  14144 ****        -7.5000  -2.2500  23.5000 Du        
  14145 ****        -7.5000  -2.0000  22.5000 Du        
  14146 ****        -7.5000  -2.0000  22.7500 Du        
  14147 ****        -7.5000  -2.0000  23.0000 Du        
  14148 ****        -7.5000  -2.0000  23.2500 Du        
  14149 ****        -7.5000  -2.0000  23.5000 Du        
  14150 ****        -7.5000  -1.7500  22.7500 Du        
  14151 ****        -7.5000  -1.7500  23.0000 Du        
  14152 ****        -7.5000  -1.7500  23.2500 Du        
  14153 ****        -7.5000  -1.7500  23.5000 Du        
  14154 ****        -7.5000  -1.5000  23.0000 Du        
  14155 ****        -7.5000  -1.5000  23.2500 Du        
  14156 ****        -7.5000   2.2500  24.5000 Du        
  14157 ****        -7.5000   2.2500  24.7500 Du        
  14158 ****        -7.5000   2.5000  24.5000 Du        
  14159 ****        -7.5000   2.5000  24.7500 Du        
  14160 ****        -7.5000   2.7500  24.5000 Du        
  14161 ****        -7.5000   2.7500  24.7500 Du        
  14162 ****        -7.5000   2.7500  25.0000 Du        
  14163 ****        -7.5000   3.0000  24.5000 Du        
  14164 ****        -7.5000   3.0000  24.7500 Du        
  14165 ****        -7.5000   3.0000  25.0000 Du        
  14166 ****        -7.5000   7.7500  28.5000 Du        
  14167 ****        -7.5000   8.0000  28.5000 Du        
  14168 ****        -7.5000   8.0000  28.7500 Du        
  14169 ****        -7.5000   8.0000  29.0000 Du        
  14170 ****        -7.2500  -6.7500  19.0000 Du        
  14171 ****        -7.2500  -6.7500  19.2500 Du        
  14172 ****        -7.2500  -6.7500  19.5000 Du        
  14173 ****        -7.2500  -6.7500  19.7500 Du        
  14174 ****        -7.2500  -6.5000  18.5000 Du        
  14175 ****        -7.2500  -6.5000  18.7500 Du        
  14176 ****        -7.2500  -6.5000  19.0000 Du        
  14177 ****        -7.2500  -6.5000  19.2500 Du        
  14178 ****        -7.2500  -6.5000  19.5000 Du        
  14179 ****        -7.2500  -6.5000  19.7500 Du        
  14180 ****        -7.2500  -6.2500  17.5000 Du        
  14181 ****        -7.2500  -6.2500  17.7500 Du        
  14182 ****        -7.2500  -6.2500  18.0000 Du        
  14183 ****        -7.2500  -6.2500  18.2500 Du        
  14184 ****        -7.2500  -6.2500  18.5000 Du        
  14185 ****        -7.2500  -6.2500  18.7500 Du        
  14186 ****        -7.2500  -6.2500  19.0000 Du        
  14187 ****        -7.2500  -6.2500  19.2500 Du        
  14188 ****        -7.2500  -6.2500  19.5000 Du        
  14189 ****        -7.2500  -6.2500  19.7500 Du        
  14190 ****        -7.2500  -6.0000  17.7500 Du        
  14191 ****        -7.2500  -6.0000  18.0000 Du        
  14192 ****        -7.2500  -6.0000  18.2500 Du        
  14193 ****        -7.2500  -6.0000  18.5000 Du        
  14194 ****        -7.2500  -6.0000  18.7500 Du        
  14195 ****        -7.2500  -6.0000  19.0000 Du        
  14196 ****        -7.2500  -6.0000  19.2500 Du        
  14197 ****        -7.2500  -6.0000  19.5000 Du        
  14198 ****        -7.2500  -6.0000  19.7500 Du        
  14199 ****        -7.2500  -6.0000  20.0000 Du        
  14200 ****        -7.2500  -5.7500  18.0000 Du        
  14201 ****        -7.2500  -5.7500  18.2500 Du        
  14202 ****        -7.2500  -5.7500  18.5000 Du        
  14203 ****        -7.2500  -5.7500  18.7500 Du        
  14204 ****        -7.2500  -5.7500  19.0000 Du        
  14205 ****        -7.2500  -5.7500  19.2500 Du        
  14206 ****        -7.2500  -5.7500  19.5000 Du        
  14207 ****        -7.2500  -5.7500  19.7500 Du        
  14208 ****        -7.2500  -5.7500  20.0000 Du        
  14209 ****        -7.2500  -5.5000  18.5000 Du        
  14210 ****        -7.2500  -5.5000  18.7500 Du        
  14211 ****        -7.2500  -5.5000  19.0000 Du        
  14212 ****        -7.2500  -5.5000  19.2500 Du        
  14213 ****        -7.2500  -5.5000  19.5000 Du        
  14214 ****        -7.2500  -5.5000  19.7500 Du        
  14215 ****        -7.2500  -5.5000  20.0000 Du        
  14216 ****        -7.2500  -5.2500  18.7500 Du        
  14217 ****        -7.2500  -5.2500  19.0000 Du        
  14218 ****        -7.2500  -5.2500  19.2500 Du        
  14219 ****        -7.2500  -5.2500  19.5000 Du        
  14220 ****        -7.2500  -5.2500  19.7500 Du        
  14221 ****        -7.2500  -5.2500  20.0000 Du        
  14222 ****        -7.2500  -5.2500  20.2500 Du        
  14223 ****        -7.2500  -5.0000  19.7500 Du        
  14224 ****        -7.2500  -5.0000  20.0000 Du        
  14225 ****        -7.2500  -5.0000  20.2500 Du        
  14226 ****        -7.2500  -4.2500  21.0000 Du        
  14227 ****        -7.2500  -4.2500  21.2500 Du        
  14228 ****        -7.2500  -4.2500  21.5000 Du        
  14229 ****        -7.2500  -4.0000  21.2500 Du        
  14230 ****        -7.2500  -4.0000  21.5000 Du        
  14231 ****        -7.2500  -4.0000  21.7500 Du        
  14232 ****        -7.2500  -4.0000  22.0000 Du        
  14233 ****        -7.2500  -4.0000  22.2500 Du        
  14234 ****        -7.2500  -3.7500  21.2500 Du        
  14235 ****        -7.2500  -3.7500  21.5000 Du        
  14236 ****        -7.2500  -3.7500  21.7500 Du        
  14237 ****        -7.2500  -3.7500  22.0000 Du        
  14238 ****        -7.2500  -3.7500  22.2500 Du        
  14239 ****        -7.2500  -3.7500  22.5000 Du        
  14240 ****        -7.2500  -3.7500  22.7500 Du        
  14241 ****        -7.2500  -3.7500  23.0000 Du        
  14242 ****        -7.2500  -3.5000  21.5000 Du        
  14243 ****        -7.2500  -3.5000  21.7500 Du        
  14244 ****        -7.2500  -3.5000  22.0000 Du        
  14245 ****        -7.2500  -3.5000  22.2500 Du        
  14246 ****        -7.2500  -3.5000  22.5000 Du        
  14247 ****        -7.2500  -3.5000  22.7500 Du        
  14248 ****        -7.2500  -3.5000  23.0000 Du        
  14249 ****        -7.2500  -3.5000  23.2500 Du        
  14250 ****        -7.2500  -3.5000  23.5000 Du        
  14251 ****        -7.2500  -3.5000  23.7500 Du        
  14252 ****        -7.2500  -3.2500  21.5000 Du        
  14253 ****        -7.2500  -3.2500  21.7500 Du        
  14254 ****        -7.2500  -3.2500  22.0000 Du        
  14255 ****        -7.2500  -3.2500  22.2500 Du        
  14256 ****        -7.2500  -3.2500  22.5000 Du        
  14257 ****        -7.2500  -3.2500  22.7500 Du        
  14258 ****        -7.2500  -3.2500  23.0000 Du        
  14259 ****        -7.2500  -3.2500  23.2500 Du        
  14260 ****        -7.2500  -3.2500  23.5000 Du        
  14261 ****        -7.2500  -3.2500  23.7500 Du        
  14262 ****        -7.2500  -3.0000  21.7500 Du        
  14263 ****        -7.2500  -3.0000  22.0000 Du        
  14264 ****        -7.2500  -3.0000  22.2500 Du        
  14265 ****        -7.2500  -3.0000  22.5000 Du        
  14266 ****        -7.2500  -3.0000  22.7500 Du        
  14267 ****        -7.2500  -3.0000  23.0000 Du        
  14268 ****        -7.2500  -3.0000  23.2500 Du        
  14269 ****        -7.2500  -3.0000  23.5000 Du        
  14270 ****        -7.2500  -2.7500   7.0000 Du        
  14271 ****        -7.2500  -2.7500  21.7500 Du        
  14272 ****        -7.2500  -2.7500  22.0000 Du        
  14273 ****        -7.2500  -2.7500  22.2500 Du        
  14274 ****        -7.2500  -2.7500  22.5000 Du        
  14275 ****        -7.2500  -2.7500  22.7500 Du        
  14276 ****        -7.2500  -2.7500  23.0000 Du        
  14277 ****        -7.2500  -2.7500  23.2500 Du        
  14278 ****        -7.2500  -2.7500  23.5000 Du        
  14279 ****        -7.2500  -2.5000   7.0000 Du        
  14280 ****        -7.2500  -2.5000  22.0000 Du        
  14281 ****        -7.2500  -2.5000  22.2500 Du        
  14282 ****        -7.2500  -2.5000  22.5000 Du        
  14283 ****        -7.2500  -2.5000  22.7500 Du        
  14284 ****        -7.2500  -2.5000  23.0000 Du        
  14285 ****        -7.2500  -2.5000  23.2500 Du        
  14286 ****        -7.2500  -2.5000  23.5000 Du        
  14287 ****        -7.2500  -2.2500   7.0000 Du        
  14288 ****        -7.2500  -2.2500   7.2500 Du        
  14289 ****        -7.2500  -2.2500  22.2500 Du        
  14290 ****        -7.2500  -2.2500  22.5000 Du        
  14291 ****        -7.2500  -2.2500  22.7500 Du        
  14292 ****        -7.2500  -2.2500  23.0000 Du        
  14293 ****        -7.2500  -2.2500  23.2500 Du        
  14294 ****        -7.2500  -2.0000  22.5000 Du        
  14295 ****        -7.2500  -2.0000  22.7500 Du        
  14296 ****        -7.2500  -2.0000  23.0000 Du        
  14297 ****        -7.2500  -2.0000  23.2500 Du        
  14298 ****        -7.2500  -1.7500  22.7500 Du        
  14299 ****        -7.2500  -1.7500  23.0000 Du        
  14300 ****        -7.2500  -1.7500  23.2500 Du        
  14301 ****        -7.2500  -1.5000  23.0000 Du        
  14302 ****        -7.2500   8.0000  28.5000 Du        
  14303 ****        -7.2500   8.0000  28.7500 Du        
  14304 ****        -7.2500   8.0000  29.0000 Du        
  14305 ****        -7.2500   8.0000  29.2500 Du        
  14306 ****        -7.0000  -6.5000  19.0000 Du        
  14307 ****        -7.0000  -6.5000  19.2500 Du        
  14308 ****        -7.0000  -6.5000  19.5000 Du        
  14309 ****        -7.0000  -6.5000  19.7500 Du        
  14310 ****        -7.0000  -6.2500  18.2500 Du        
  14311 ****        -7.0000  -6.2500  18.5000 Du        
  14312 ****        -7.0000  -6.2500  18.7500 Du        
  14313 ****        -7.0000  -6.2500  19.0000 Du        
  14314 ****        -7.0000  -6.2500  19.2500 Du        
  14315 ****        -7.0000  -6.2500  19.5000 Du        
  14316 ****        -7.0000  -6.2500  19.7500 Du        
  14317 ****        -7.0000  -6.0000  18.0000 Du        
  14318 ****        -7.0000  -6.0000  18.2500 Du        
  14319 ****        -7.0000  -6.0000  18.5000 Du        
  14320 ****        -7.0000  -6.0000  18.7500 Du        
  14321 ****        -7.0000  -6.0000  19.0000 Du        
  14322 ****        -7.0000  -6.0000  19.2500 Du        
  14323 ****        -7.0000  -6.0000  19.5000 Du        
  14324 ****        -7.0000  -6.0000  19.7500 Du        
  14325 ****        -7.0000  -6.0000  20.0000 Du        
  14326 ****        -7.0000  -5.7500  18.0000 Du        
  14327 ****        -7.0000  -5.7500  18.2500 Du        
  14328 ****        -7.0000  -5.7500  18.5000 Du        
  14329 ****        -7.0000  -5.7500  18.7500 Du        
  14330 ****        -7.0000  -5.7500  19.0000 Du        
  14331 ****        -7.0000  -5.7500  19.2500 Du        
  14332 ****        -7.0000  -5.7500  19.5000 Du        
  14333 ****        -7.0000  -5.7500  19.7500 Du        
  14334 ****        -7.0000  -5.7500  20.0000 Du        
  14335 ****        -7.0000  -5.5000  18.5000 Du        
  14336 ****        -7.0000  -5.5000  18.7500 Du        
  14337 ****        -7.0000  -5.5000  19.0000 Du        
  14338 ****        -7.0000  -5.5000  19.2500 Du        
  14339 ****        -7.0000  -5.5000  19.5000 Du        
  14340 ****        -7.0000  -5.5000  19.7500 Du        
  14341 ****        -7.0000  -5.5000  20.0000 Du        
  14342 ****        -7.0000  -5.2500  18.7500 Du        
  14343 ****        -7.0000  -5.2500  19.0000 Du        
  14344 ****        -7.0000  -5.2500  19.2500 Du        
  14345 ****        -7.0000  -5.2500  19.5000 Du        
  14346 ****        -7.0000  -5.2500  19.7500 Du        
  14347 ****        -7.0000  -5.2500  20.0000 Du        
  14348 ****        -7.0000  -5.2500  20.2500 Du        
  14349 ****        -7.0000  -5.0000  20.0000 Du        
  14350 ****        -7.0000  -5.0000  20.2500 Du        
  14351 ****        -7.0000  -4.2500  21.2500 Du        
  14352 ****        -7.0000  -4.2500  21.5000 Du        
  14353 ****        -7.0000  -4.0000  21.2500 Du        
  14354 ****        -7.0000  -4.0000  21.5000 Du        
  14355 ****        -7.0000  -4.0000  21.7500 Du        
  14356 ****        -7.0000  -4.0000  22.0000 Du        
  14357 ****        -7.0000  -4.0000  22.2500 Du        
  14358 ****        -7.0000  -3.7500  21.2500 Du        
  14359 ****        -7.0000  -3.7500  21.5000 Du        
  14360 ****        -7.0000  -3.7500  21.7500 Du        
  14361 ****        -7.0000  -3.7500  22.0000 Du        
  14362 ****        -7.0000  -3.7500  22.2500 Du        
  14363 ****        -7.0000  -3.7500  22.5000 Du        
  14364 ****        -7.0000  -3.7500  22.7500 Du        
  14365 ****        -7.0000  -3.7500  23.0000 Du        
  14366 ****        -7.0000  -3.5000  21.5000 Du        
  14367 ****        -7.0000  -3.5000  21.7500 Du        
  14368 ****        -7.0000  -3.5000  22.0000 Du        
  14369 ****        -7.0000  -3.5000  22.2500 Du        
  14370 ****        -7.0000  -3.5000  22.5000 Du        
  14371 ****        -7.0000  -3.5000  22.7500 Du        
  14372 ****        -7.0000  -3.5000  23.0000 Du        
  14373 ****        -7.0000  -3.5000  23.2500 Du        
  14374 ****        -7.0000  -3.5000  23.5000 Du        
  14375 ****        -7.0000  -3.2500  21.5000 Du        
  14376 ****        -7.0000  -3.2500  21.7500 Du        
  14377 ****        -7.0000  -3.2500  22.0000 Du        
  14378 ****        -7.0000  -3.2500  22.2500 Du        
  14379 ****        -7.0000  -3.2500  22.5000 Du        
  14380 ****        -7.0000  -3.2500  22.7500 Du        
  14381 ****        -7.0000  -3.2500  23.0000 Du        
  14382 ****        -7.0000  -3.2500  23.2500 Du        
  14383 ****        -7.0000  -3.2500  23.5000 Du        
  14384 ****        -7.0000  -3.0000  21.7500 Du        
  14385 ****        -7.0000  -3.0000  22.0000 Du        
  14386 ****        -7.0000  -3.0000  22.2500 Du        
  14387 ****        -7.0000  -3.0000  22.5000 Du        
  14388 ****        -7.0000  -3.0000  22.7500 Du        
  14389 ****        -7.0000  -3.0000  23.0000 Du        
  14390 ****        -7.0000  -3.0000  23.2500 Du        
  14391 ****        -7.0000  -3.0000  23.5000 Du        
  14392 ****        -7.0000  -2.7500  22.0000 Du        
  14393 ****        -7.0000  -2.7500  22.2500 Du        
  14394 ****        -7.0000  -2.7500  22.5000 Du        
  14395 ****        -7.0000  -2.7500  22.7500 Du        
  14396 ****        -7.0000  -2.7500  23.0000 Du        
  14397 ****        -7.0000  -2.7500  23.2500 Du        
  14398 ****        -7.0000  -2.5000  22.0000 Du        
  14399 ****        -7.0000  -2.5000  22.2500 Du        
  14400 ****        -7.0000  -2.5000  22.5000 Du        
  14401 ****        -7.0000  -2.5000  22.7500 Du        
  14402 ****        -7.0000  -2.5000  23.0000 Du        
  14403 ****        -7.0000  -2.5000  23.2500 Du        
  14404 ****        -7.0000  -2.2500   7.0000 Du        
  14405 ****        -7.0000  -2.2500  22.2500 Du        
  14406 ****        -7.0000  -2.2500  22.5000 Du        
  14407 ****        -7.0000  -2.2500  22.7500 Du        
  14408 ****        -7.0000  -2.2500  23.0000 Du        
  14409 ****        -7.0000  -2.2500  23.2500 Du        
  14410 ****        -7.0000  -2.0000  22.5000 Du        
  14411 ****        -7.0000  -2.0000  22.7500 Du        
  14412 ****        -7.0000  -2.0000  23.0000 Du        
  14413 ****        -7.0000  -1.7500  22.7500 Du        
  14414 ****        -7.0000  -1.7500  23.0000 Du        
  14415 ****        -7.0000   8.0000  28.7500 Du        
  14416 ****        -7.0000   8.0000  29.0000 Du        
  14417 ****        -7.0000   8.2500  28.7500 Du        
  14418 ****        -7.0000   8.2500  29.0000 Du        
  14419 ****        -6.7500  -6.2500  18.7500 Du        
  14420 ****        -6.7500  -6.2500  19.0000 Du        
  14421 ****        -6.7500  -6.2500  19.2500 Du        
  14422 ****        -6.7500  -6.2500  19.5000 Du        
  14423 ****        -6.7500  -6.2500  19.7500 Du        
  14424 ****        -6.7500  -6.0000  18.2500 Du        
  14425 ****        -6.7500  -6.0000  18.5000 Du        
  14426 ****        -6.7500  -6.0000  18.7500 Du        
  14427 ****        -6.7500  -6.0000  19.0000 Du        
  14428 ****        -6.7500  -6.0000  19.2500 Du        
  14429 ****        -6.7500  -6.0000  19.5000 Du        
  14430 ****        -6.7500  -6.0000  19.7500 Du        
  14431 ****        -6.7500  -5.7500  18.2500 Du        
  14432 ****        -6.7500  -5.7500  18.5000 Du        
  14433 ****        -6.7500  -5.7500  18.7500 Du        
  14434 ****        -6.7500  -5.7500  19.0000 Du        
  14435 ****        -6.7500  -5.7500  19.2500 Du        
  14436 ****        -6.7500  -5.7500  19.5000 Du        
  14437 ****        -6.7500  -5.7500  19.7500 Du        
  14438 ****        -6.7500  -5.7500  20.0000 Du        
  14439 ****        -6.7500  -5.5000  18.5000 Du        
  14440 ****        -6.7500  -5.5000  18.7500 Du        
  14441 ****        -6.7500  -5.5000  19.0000 Du        
  14442 ****        -6.7500  -5.5000  19.2500 Du        
  14443 ****        -6.7500  -5.5000  19.5000 Du        
  14444 ****        -6.7500  -5.5000  19.7500 Du        
  14445 ****        -6.7500  -5.5000  20.0000 Du        
  14446 ****        -6.7500  -5.2500  19.0000 Du        
  14447 ****        -6.7500  -5.2500  19.2500 Du        
  14448 ****        -6.7500  -5.2500  19.5000 Du        
  14449 ****        -6.7500  -5.2500  19.7500 Du        
  14450 ****        -6.7500  -5.2500  20.0000 Du        
  14451 ****        -6.7500  -5.0000  20.0000 Du        
  14452 ****        -6.7500  -5.0000  20.2500 Du        
  14453 ****        -6.7500  -4.2500  21.2500 Du        
  14454 ****        -6.7500  -4.0000  21.2500 Du        
  14455 ****        -6.7500  -4.0000  21.5000 Du        
  14456 ****        -6.7500  -4.0000  21.7500 Du        
  14457 ****        -6.7500  -4.0000  22.0000 Du        
  14458 ****        -6.7500  -4.0000  22.2500 Du        
  14459 ****        -6.7500  -3.7500  21.5000 Du        
  14460 ****        -6.7500  -3.7500  21.7500 Du        
  14461 ****        -6.7500  -3.7500  22.0000 Du        
  14462 ****        -6.7500  -3.7500  22.2500 Du        
  14463 ****        -6.7500  -3.7500  22.5000 Du        
  14464 ****        -6.7500  -3.7500  22.7500 Du        
  14465 ****        -6.7500  -3.7500  23.0000 Du        
  14466 ****        -6.7500  -3.5000  21.5000 Du        
  14467 ****        -6.7500  -3.5000  21.7500 Du        
  14468 ****        -6.7500  -3.5000  22.0000 Du        
  14469 ****        -6.7500  -3.5000  22.2500 Du        
  14470 ****        -6.7500  -3.5000  22.5000 Du        
  14471 ****        -6.7500  -3.5000  22.7500 Du        
  14472 ****        -6.7500  -3.5000  23.0000 Du        
  14473 ****        -6.7500  -3.5000  23.2500 Du        
  14474 ****        -6.7500  -3.2500  21.7500 Du        
  14475 ****        -6.7500  -3.2500  22.0000 Du        
  14476 ****        -6.7500  -3.2500  22.2500 Du        
  14477 ****        -6.7500  -3.2500  22.5000 Du        
  14478 ****        -6.7500  -3.2500  22.7500 Du        
  14479 ****        -6.7500  -3.2500  23.0000 Du        
  14480 ****        -6.7500  -3.2500  23.2500 Du        
  14481 ****        -6.7500  -3.0000  21.7500 Du        
  14482 ****        -6.7500  -3.0000  22.0000 Du        
  14483 ****        -6.7500  -3.0000  22.2500 Du        
  14484 ****        -6.7500  -3.0000  22.5000 Du        
  14485 ****        -6.7500  -3.0000  22.7500 Du        
  14486 ****        -6.7500  -3.0000  23.0000 Du        
  14487 ****        -6.7500  -3.0000  23.2500 Du        
  14488 ****        -6.7500  -2.7500  22.0000 Du        
  14489 ****        -6.7500  -2.7500  22.2500 Du        
  14490 ****        -6.7500  -2.7500  22.5000 Du        
  14491 ****        -6.7500  -2.7500  22.7500 Du        
  14492 ****        -6.7500  -2.7500  23.0000 Du        
  14493 ****        -6.7500  -2.5000  22.2500 Du        
  14494 ****        -6.7500  -2.5000  22.5000 Du        
  14495 ****        -6.7500  -2.5000  22.7500 Du        
  14496 ****        -6.7500  -2.5000  23.0000 Du        
  14497 ****        -6.7500  -2.2500  22.5000 Du        
  14498 ****        -6.7500  -2.2500  22.7500 Du        
  14499 ****        -6.7500  -2.2500  23.0000 Du        
  14500 ****        -6.7500  -2.0000  22.7500 Du        
  14501 ****        -6.7500   8.2500  28.7500 Du        
  14502 ****        -6.7500   8.2500  29.0000 Du        
  14503 ****        -6.5000  -6.2500  19.2500 Du        
  14504 ****        -6.5000  -6.2500  19.5000 Du        
  14505 ****        -6.5000  -6.2500  19.7500 Du        
  14506 ****        -6.5000  -6.0000  18.5000 Du        
  14507 ****        -6.5000  -6.0000  18.7500 Du        
  14508 ****        -6.5000  -6.0000  19.0000 Du        
  14509 ****        -6.5000  -6.0000  19.2500 Du        
  14510 ****        -6.5000  -6.0000  19.5000 Du        
  14511 ****        -6.5000  -6.0000  19.7500 Du        
  14512 ****        -6.5000  -5.7500  18.2500 Du        
  14513 ****        -6.5000  -5.7500  18.5000 Du        
  14514 ****        -6.5000  -5.7500  18.7500 Du        
  14515 ****        -6.5000  -5.7500  19.0000 Du        
  14516 ****        -6.5000  -5.7500  19.2500 Du        
  14517 ****        -6.5000  -5.7500  19.5000 Du        
  14518 ****        -6.5000  -5.7500  19.7500 Du        
  14519 ****        -6.5000  -5.5000  18.5000 Du        
  14520 ****        -6.5000  -5.5000  18.7500 Du        
  14521 ****        -6.5000  -5.5000  19.0000 Du        
  14522 ****        -6.5000  -5.5000  19.2500 Du        
  14523 ****        -6.5000  -5.5000  19.5000 Du        
  14524 ****        -6.5000  -5.5000  19.7500 Du        
  14525 ****        -6.5000  -5.5000  20.0000 Du        
  14526 ****        -6.5000  -5.2500  19.0000 Du        
  14527 ****        -6.5000  -5.2500  19.2500 Du        
  14528 ****        -6.5000  -5.2500  19.5000 Du        
  14529 ****        -6.5000  -5.2500  19.7500 Du        
  14530 ****        -6.5000  -5.2500  20.0000 Du        
  14531 ****        -6.5000  -5.0000  20.0000 Du        
  14532 ****        -6.5000  -5.0000  20.2500 Du        
  14533 ****        -6.5000  -4.2500  21.2500 Du        
  14534 ****        -6.5000  -4.0000  21.2500 Du        
  14535 ****        -6.5000  -4.0000  21.5000 Du        
  14536 ****        -6.5000  -4.0000  21.7500 Du        
  14537 ****        -6.5000  -4.0000  22.0000 Du        
  14538 ****        -6.5000  -4.0000  22.2500 Du        
  14539 ****        -6.5000  -4.0000  22.5000 Du        
  14540 ****        -6.5000  -3.7500  21.2500 Du        
  14541 ****        -6.5000  -3.7500  21.5000 Du        
  14542 ****        -6.5000  -3.7500  21.7500 Du        
  14543 ****        -6.5000  -3.7500  22.0000 Du        
  14544 ****        -6.5000  -3.7500  22.2500 Du        
  14545 ****        -6.5000  -3.7500  22.5000 Du        
  14546 ****        -6.5000  -3.7500  22.7500 Du        
  14547 ****        -6.5000  -3.7500  23.0000 Du        
  14548 ****        -6.5000  -3.5000  21.5000 Du        
  14549 ****        -6.5000  -3.5000  21.7500 Du        
  14550 ****        -6.5000  -3.5000  22.0000 Du        
  14551 ****        -6.5000  -3.5000  22.2500 Du        
  14552 ****        -6.5000  -3.5000  22.5000 Du        
  14553 ****        -6.5000  -3.5000  22.7500 Du        
  14554 ****        -6.5000  -3.5000  23.0000 Du        
  14555 ****        -6.5000  -3.2500  21.5000 Du        
  14556 ****        -6.5000  -3.2500  21.7500 Du        
  14557 ****        -6.5000  -3.2500  22.0000 Du        
  14558 ****        -6.5000  -3.2500  22.2500 Du        
  14559 ****        -6.5000  -3.2500  22.5000 Du        
  14560 ****        -6.5000  -3.2500  22.7500 Du        
  14561 ****        -6.5000  -3.2500  23.0000 Du        
  14562 ****        -6.5000  -3.0000  21.7500 Du        
  14563 ****        -6.5000  -3.0000  22.0000 Du        
  14564 ****        -6.5000  -3.0000  22.2500 Du        
  14565 ****        -6.5000  -3.0000  22.5000 Du        
  14566 ****        -6.5000  -3.0000  22.7500 Du        
  14567 ****        -6.5000  -3.0000  23.0000 Du        
  14568 ****        -6.5000  -2.7500  22.0000 Du        
  14569 ****        -6.5000  -2.7500  22.2500 Du        
  14570 ****        -6.5000  -2.7500  22.5000 Du        
  14571 ****        -6.5000  -2.7500  22.7500 Du        
  14572 ****        -6.5000  -2.7500  23.0000 Du        
  14573 ****        -6.5000  -2.5000  22.2500 Du        
  14574 ****        -6.5000  -2.5000  22.5000 Du        
  14575 ****        -6.5000  -2.5000  22.7500 Du        
  14576 ****        -6.5000  -2.0000   7.0000 Du        
  14577 ****        -6.5000   8.2500  28.7500 Du        
  14578 ****        -6.5000   8.2500  29.0000 Du        
  14579 ****        -6.2500  -6.2500  19.5000 Du        
  14580 ****        -6.2500  -6.0000  18.7500 Du        
  14581 ****        -6.2500  -6.0000  19.0000 Du        
  14582 ****        -6.2500  -6.0000  19.2500 Du        
  14583 ****        -6.2500  -6.0000  19.5000 Du        
  14584 ****        -6.2500  -6.0000  19.7500 Du        
  14585 ****        -6.2500  -5.7500  18.2500 Du        
  14586 ****        -6.2500  -5.7500  18.5000 Du        
  14587 ****        -6.2500  -5.7500  18.7500 Du        
  14588 ****        -6.2500  -5.7500  19.0000 Du        
  14589 ****        -6.2500  -5.7500  19.2500 Du        
  14590 ****        -6.2500  -5.7500  19.5000 Du        
  14591 ****        -6.2500  -5.7500  19.7500 Du        
  14592 ****        -6.2500  -5.5000  18.5000 Du        
  14593 ****        -6.2500  -5.5000  18.7500 Du        
  14594 ****        -6.2500  -5.5000  19.0000 Du        
  14595 ****        -6.2500  -5.5000  19.2500 Du        
  14596 ****        -6.2500  -5.5000  19.5000 Du        
  14597 ****        -6.2500  -5.5000  19.7500 Du        
  14598 ****        -6.2500  -5.5000  20.0000 Du        
  14599 ****        -6.2500  -5.2500  19.0000 Du        
  14600 ****        -6.2500  -5.2500  19.2500 Du        
  14601 ****        -6.2500  -5.2500  19.5000 Du        
  14602 ****        -6.2500  -5.2500  19.7500 Du        
  14603 ****        -6.2500  -5.2500  20.0000 Du        
  14604 ****        -6.2500  -5.0000  19.7500 Du        
  14605 ****        -6.2500  -5.0000  20.0000 Du        
  14606 ****        -6.2500  -5.0000  20.2500 Du        
  14607 ****        -6.2500  -4.2500  21.0000 Du        
  14608 ****        -6.2500  -4.2500  21.2500 Du        
  14609 ****        -6.2500  -4.0000  21.2500 Du        
  14610 ****        -6.2500  -4.0000  21.5000 Du        
  14611 ****        -6.2500  -4.0000  21.7500 Du        
  14612 ****        -6.2500  -4.0000  22.0000 Du        
  14613 ****        -6.2500  -4.0000  22.2500 Du        
  14614 ****        -6.2500  -4.0000  22.5000 Du        
  14615 ****        -6.2500  -3.7500  21.2500 Du        
  14616 ****        -6.2500  -3.7500  21.5000 Du        
  14617 ****        -6.2500  -3.7500  21.7500 Du        
  14618 ****        -6.2500  -3.7500  22.0000 Du        
  14619 ****        -6.2500  -3.7500  22.2500 Du        
  14620 ****        -6.2500  -3.7500  22.5000 Du        
  14621 ****        -6.2500  -3.7500  22.7500 Du        
  14622 ****        -6.2500  -3.7500  23.0000 Du        
  14623 ****        -6.2500  -3.5000  21.5000 Du        
  14624 ****        -6.2500  -3.5000  21.7500 Du        
  14625 ****        -6.2500  -3.5000  22.0000 Du        
  14626 ****        -6.2500  -3.5000  22.2500 Du        
  14627 ****        -6.2500  -3.5000  22.5000 Du        
  14628 ****        -6.2500  -3.5000  22.7500 Du        
  14629 ****        -6.2500  -3.5000  23.0000 Du        
  14630 ****        -6.2500  -3.2500  21.5000 Du        
  14631 ****        -6.2500  -3.2500  21.7500 Du        
  14632 ****        -6.2500  -3.2500  22.0000 Du        
  14633 ****        -6.2500  -3.2500  22.2500 Du        
  14634 ****        -6.2500  -3.2500  22.5000 Du        
  14635 ****        -6.2500  -3.2500  22.7500 Du        
  14636 ****        -6.2500  -3.0000  21.7500 Du        
  14637 ****        -6.2500  -3.0000  22.0000 Du        
  14638 ****        -6.2500  -3.0000  22.2500 Du        
  14639 ****        -6.2500  -3.0000  22.5000 Du        
  14640 ****        -6.2500  -3.0000  22.7500 Du        
  14641 ****        -6.2500  -2.7500  22.2500 Du        
  14642 ****        -6.2500  -2.7500  22.5000 Du        
  14643 ****        -6.0000  -6.0000  19.0000 Du        
  14644 ****        -6.0000  -6.0000  19.2500 Du        
  14645 ****        -6.0000  -6.0000  19.5000 Du        
  14646 ****        -6.0000  -6.0000  19.7500 Du        
  14647 ****        -6.0000  -5.7500  18.5000 Du        
  14648 ****        -6.0000  -5.7500  18.7500 Du        
  14649 ****        -6.0000  -5.7500  19.0000 Du        
  14650 ****        -6.0000  -5.7500  19.2500 Du        
  14651 ****        -6.0000  -5.7500  19.5000 Du        
  14652 ****        -6.0000  -5.7500  19.7500 Du        
  14653 ****        -6.0000  -5.5000  18.5000 Du        
  14654 ****        -6.0000  -5.5000  18.7500 Du        
  14655 ****        -6.0000  -5.5000  19.0000 Du        
  14656 ****        -6.0000  -5.5000  19.2500 Du        
  14657 ****        -6.0000  -5.5000  19.5000 Du        
  14658 ****        -6.0000  -5.5000  19.7500 Du        
  14659 ****        -6.0000  -5.5000  20.0000 Du        
  14660 ****        -6.0000  -5.2500  18.7500 Du        
  14661 ****        -6.0000  -5.2500  19.0000 Du        
  14662 ****        -6.0000  -5.2500  19.2500 Du        
  14663 ****        -6.0000  -5.2500  19.5000 Du        
  14664 ****        -6.0000  -5.2500  19.7500 Du        
  14665 ****        -6.0000  -5.2500  20.0000 Du        
  14666 ****        -6.0000  -5.0000  19.7500 Du        
  14667 ****        -6.0000  -5.0000  20.0000 Du        
  14668 ****        -6.0000  -5.0000  20.2500 Du        
  14669 ****        -6.0000  -4.2500  21.0000 Du        
  14670 ****        -6.0000  -4.2500  21.2500 Du        
  14671 ****        -6.0000  -4.0000  21.2500 Du        
  14672 ****        -6.0000  -4.0000  21.5000 Du        
  14673 ****        -6.0000  -4.0000  21.7500 Du        
  14674 ****        -6.0000  -4.0000  22.0000 Du        
  14675 ****        -6.0000  -4.0000  22.2500 Du        
  14676 ****        -6.0000  -4.0000  22.5000 Du        
  14677 ****        -6.0000  -3.7500  21.2500 Du        
  14678 ****        -6.0000  -3.7500  21.5000 Du        
  14679 ****        -6.0000  -3.7500  21.7500 Du        
  14680 ****        -6.0000  -3.7500  22.0000 Du        
  14681 ****        -6.0000  -3.7500  22.2500 Du        
  14682 ****        -6.0000  -3.7500  22.5000 Du        
  14683 ****        -6.0000  -3.7500  22.7500 Du        
  14684 ****        -6.0000  -3.5000  21.5000 Du        
  14685 ****        -6.0000  -3.5000  21.7500 Du        
  14686 ****        -6.0000  -3.5000  22.0000 Du        
  14687 ****        -6.0000  -3.5000  22.2500 Du        
  14688 ****        -6.0000  -3.5000  22.5000 Du        
  14689 ****        -6.0000  -3.5000  22.7500 Du        
  14690 ****        -6.0000  -3.2500  21.7500 Du        
  14691 ****        -6.0000  -3.2500  22.0000 Du        
  14692 ****        -6.0000  -3.2500  22.2500 Du        
  14693 ****        -6.0000  -3.2500  22.5000 Du        
  14694 ****        -6.0000  -3.2500  22.7500 Du        
  14695 ****        -6.0000  -3.0000  22.0000 Du        
  14696 ****        -6.0000  -3.0000  22.2500 Du        
  14697 ****        -6.0000  -3.0000  22.5000 Du        
  14698 ****        -5.7500  -6.0000  19.2500 Du        
  14699 ****        -5.7500  -6.0000  19.5000 Du        
  14700 ****        -5.7500  -6.0000  19.7500 Du        
  14701 ****        -5.7500  -5.7500  18.5000 Du        
  14702 ****        -5.7500  -5.7500  18.7500 Du        
  14703 ****        -5.7500  -5.7500  19.0000 Du        
  14704 ****        -5.7500  -5.7500  19.2500 Du        
  14705 ****        -5.7500  -5.7500  19.5000 Du        
  14706 ****        -5.7500  -5.7500  19.7500 Du        
  14707 ****        -5.7500  -5.5000  18.5000 Du        
  14708 ****        -5.7500  -5.5000  18.7500 Du        
  14709 ****        -5.7500  -5.5000  19.0000 Du        
  14710 ****        -5.7500  -5.5000  19.2500 Du        
  14711 ****        -5.7500  -5.5000  19.5000 Du        
  14712 ****        -5.7500  -5.5000  19.7500 Du        
  14713 ****        -5.7500  -5.5000  20.0000 Du        
  14714 ****        -5.7500  -5.2500  18.7500 Du        
  14715 ****        -5.7500  -5.2500  19.0000 Du        
  14716 ****        -5.7500  -5.2500  19.2500 Du        
  14717 ****        -5.7500  -5.2500  19.5000 Du        
  14718 ****        -5.7500  -5.2500  19.7500 Du        
  14719 ****        -5.7500  -5.2500  20.0000 Du        
  14720 ****        -5.7500  -5.2500  20.2500 Du        
  14721 ****        -5.7500  -5.0000  19.5000 Du        
  14722 ****        -5.7500  -5.0000  19.7500 Du        
  14723 ****        -5.7500  -5.0000  20.0000 Du        
  14724 ****        -5.7500  -5.0000  20.2500 Du        
  14725 ****        -5.7500  -4.7500  20.0000 Du        
  14726 ****        -5.7500  -4.7500  20.2500 Du        
  14727 ****        -5.7500  -4.7500  20.5000 Du        
  14728 ****        -5.7500  -4.5000  20.7500 Du        
  14729 ****        -5.7500  -4.2500  21.0000 Du        
  14730 ****        -5.7500  -4.2500  21.2500 Du        
  14731 ****        -5.7500  -4.2500  21.5000 Du        
  14732 ****        -5.7500  -4.0000  21.0000 Du        
  14733 ****        -5.7500  -4.0000  21.2500 Du        
  14734 ****        -5.7500  -4.0000  21.5000 Du        
  14735 ****        -5.7500  -4.0000  21.7500 Du        
  14736 ****        -5.7500  -4.0000  22.0000 Du        
  14737 ****        -5.7500  -4.0000  22.2500 Du        
  14738 ****        -5.7500  -3.7500  21.2500 Du        
  14739 ****        -5.7500  -3.7500  21.5000 Du        
  14740 ****        -5.7500  -3.7500  21.7500 Du        
  14741 ****        -5.7500  -3.7500  22.0000 Du        
  14742 ****        -5.7500  -3.7500  22.2500 Du        
  14743 ****        -5.7500  -3.7500  22.5000 Du        
  14744 ****        -5.7500  -3.5000  21.5000 Du        
  14745 ****        -5.7500  -3.5000  21.7500 Du        
  14746 ****        -5.7500  -3.5000  22.0000 Du        
  14747 ****        -5.7500  -3.5000  22.2500 Du        
  14748 ****        -5.7500  -3.5000  22.5000 Du        
  14749 ****        -5.7500  -3.2500  21.7500 Du        
  14750 ****        -5.7500  -3.2500  22.0000 Du        
  14751 ****        -5.7500  -3.2500  22.2500 Du        
  14752 ****        -5.5000  -6.0000  19.2500 Du        
  14753 ****        -5.5000  -6.0000  19.5000 Du        
  14754 ****        -5.5000  -6.0000  19.7500 Du        
  14755 ****        -5.5000  -5.7500  18.7500 Du        
  14756 ****        -5.5000  -5.7500  19.0000 Du        
  14757 ****        -5.5000  -5.7500  19.2500 Du        
  14758 ****        -5.5000  -5.7500  19.5000 Du        
  14759 ****        -5.5000  -5.7500  19.7500 Du        
  14760 ****        -5.5000  -5.7500  20.0000 Du        
  14761 ****        -5.5000  -5.5000  18.5000 Du        
  14762 ****        -5.5000  -5.5000  18.7500 Du        
  14763 ****        -5.5000  -5.5000  19.0000 Du        
  14764 ****        -5.5000  -5.5000  19.2500 Du        
  14765 ****        -5.5000  -5.5000  19.5000 Du        
  14766 ****        -5.5000  -5.5000  19.7500 Du        
  14767 ****        -5.5000  -5.5000  20.0000 Du        
  14768 ****        -5.5000  -5.2500  18.7500 Du        
  14769 ****        -5.5000  -5.2500  19.0000 Du        
  14770 ****        -5.5000  -5.2500  19.2500 Du        
  14771 ****        -5.5000  -5.2500  19.5000 Du        
  14772 ****        -5.5000  -5.2500  19.7500 Du        
  14773 ****        -5.5000  -5.2500  20.0000 Du        
  14774 ****        -5.5000  -5.2500  20.2500 Du        
  14775 ****        -5.5000  -5.0000  19.2500 Du        
  14776 ****        -5.5000  -5.0000  19.5000 Du        
  14777 ****        -5.5000  -5.0000  19.7500 Du        
  14778 ****        -5.5000  -5.0000  20.0000 Du        
  14779 ****        -5.5000  -5.0000  20.2500 Du        
  14780 ****        -5.5000  -4.7500  20.0000 Du        
  14781 ****        -5.5000  -4.7500  20.2500 Du        
  14782 ****        -5.5000  -4.7500  20.5000 Du        
  14783 ****        -5.5000  -4.5000  20.5000 Du        
  14784 ****        -5.5000  -4.5000  20.7500 Du        
  14785 ****        -5.5000  -4.5000  21.0000 Du        
  14786 ****        -5.5000  -4.2500  20.7500 Du        
  14787 ****        -5.5000  -4.2500  21.0000 Du        
  14788 ****        -5.5000  -4.2500  21.2500 Du        
  14789 ****        -5.5000  -4.2500  21.5000 Du        
  14790 ****        -5.5000  -4.0000  21.0000 Du        
  14791 ****        -5.5000  -4.0000  21.2500 Du        
  14792 ****        -5.5000  -4.0000  21.5000 Du        
  14793 ****        -5.5000  -4.0000  21.7500 Du        
  14794 ****        -5.5000  -4.0000  22.0000 Du        
  14795 ****        -5.5000  -3.7500  21.2500 Du        
  14796 ****        -5.5000  -3.7500  21.5000 Du        
  14797 ****        -5.5000  -3.7500  21.7500 Du        
  14798 ****        -5.5000  -3.7500  22.0000 Du        
  14799 ****        -5.5000  -3.7500  22.2500 Du        
  14800 ****        -5.5000  -3.5000  21.5000 Du        
  14801 ****        -5.5000  -3.5000  21.7500 Du        
  14802 ****        -5.5000  -3.5000  22.0000 Du        
  14803 ****        -5.5000  -3.5000  22.2500 Du        
  14804 ****        -5.2500  -6.0000  19.2500 Du        
  14805 ****        -5.2500  -6.0000  19.5000 Du        
  14806 ****        -5.2500  -6.0000  19.7500 Du        
  14807 ****        -5.2500  -5.7500  18.7500 Du        
  14808 ****        -5.2500  -5.7500  19.0000 Du        
  14809 ****        -5.2500  -5.7500  19.2500 Du        
  14810 ****        -5.2500  -5.7500  19.5000 Du        
  14811 ****        -5.2500  -5.7500  19.7500 Du        
  14812 ****        -5.2500  -5.7500  20.0000 Du        
  14813 ****        -5.2500  -5.5000  18.5000 Du        
  14814 ****        -5.2500  -5.5000  18.7500 Du        
  14815 ****        -5.2500  -5.5000  19.0000 Du        
  14816 ****        -5.2500  -5.5000  19.2500 Du        
  14817 ****        -5.2500  -5.5000  19.5000 Du        
  14818 ****        -5.2500  -5.5000  19.7500 Du        
  14819 ****        -5.2500  -5.5000  20.0000 Du        
  14820 ****        -5.2500  -5.2500  18.7500 Du        
  14821 ****        -5.2500  -5.2500  19.0000 Du        
  14822 ****        -5.2500  -5.2500  19.2500 Du        
  14823 ****        -5.2500  -5.2500  19.5000 Du        
  14824 ****        -5.2500  -5.2500  19.7500 Du        
  14825 ****        -5.2500  -5.2500  20.0000 Du        
  14826 ****        -5.2500  -5.2500  20.2500 Du        
  14827 ****        -5.2500  -5.0000  19.0000 Du        
  14828 ****        -5.2500  -5.0000  19.2500 Du        
  14829 ****        -5.2500  -5.0000  19.5000 Du        
  14830 ****        -5.2500  -5.0000  19.7500 Du        
  14831 ****        -5.2500  -5.0000  20.0000 Du        
  14832 ****        -5.2500  -5.0000  20.2500 Du        
  14833 ****        -5.2500  -5.0000  20.5000 Du        
  14834 ****        -5.2500  -4.7500  19.5000 Du        
  14835 ****        -5.2500  -4.7500  19.7500 Du        
  14836 ****        -5.2500  -4.7500  20.0000 Du        
  14837 ****        -5.2500  -4.7500  20.2500 Du        
  14838 ****        -5.2500  -4.7500  20.5000 Du        
  14839 ****        -5.2500  -4.7500  20.7500 Du        
  14840 ****        -5.2500  -4.5000  20.2500 Du        
  14841 ****        -5.2500  -4.5000  20.5000 Du        
  14842 ****        -5.2500  -4.5000  20.7500 Du        
  14843 ****        -5.2500  -4.5000  21.0000 Du        
  14844 ****        -5.2500  -4.2500  20.5000 Du        
  14845 ****        -5.2500  -4.2500  20.7500 Du        
  14846 ****        -5.2500  -4.2500  21.0000 Du        
  14847 ****        -5.2500  -4.2500  21.2500 Du        
  14848 ****        -5.2500  -4.2500  21.5000 Du        
  14849 ****        -5.2500  -4.0000  20.7500 Du        
  14850 ****        -5.2500  -4.0000  21.0000 Du        
  14851 ****        -5.2500  -4.0000  21.2500 Du        
  14852 ****        -5.2500  -4.0000  21.5000 Du        
  14853 ****        -5.2500  -4.0000  21.7500 Du        
  14854 ****        -5.2500  -3.7500  21.0000 Du        
  14855 ****        -5.2500  -3.7500  21.2500 Du        
  14856 ****        -5.2500  -3.7500  21.5000 Du        
  14857 ****        -5.2500  -3.7500  21.7500 Du        
  14858 ****        -5.2500  -3.7500  22.0000 Du        
  14859 ****        -5.0000  -6.0000  19.2500 Du        
  14860 ****        -5.0000  -6.0000  19.5000 Du        
  14861 ****        -5.0000  -6.0000  19.7500 Du        
  14862 ****        -5.0000  -5.7500  18.7500 Du        
  14863 ****        -5.0000  -5.7500  19.0000 Du        
  14864 ****        -5.0000  -5.7500  19.2500 Du        
  14865 ****        -5.0000  -5.7500  19.5000 Du        
  14866 ****        -5.0000  -5.7500  19.7500 Du        
  14867 ****        -5.0000  -5.7500  20.0000 Du        
  14868 ****        -5.0000  -5.5000  18.7500 Du        
  14869 ****        -5.0000  -5.5000  19.0000 Du        
  14870 ****        -5.0000  -5.5000  19.2500 Du        
  14871 ****        -5.0000  -5.5000  19.5000 Du        
  14872 ****        -5.0000  -5.5000  19.7500 Du        
  14873 ****        -5.0000  -5.5000  20.0000 Du        
  14874 ****        -5.0000  -5.5000  20.2500 Du        
  14875 ****        -5.0000  -5.2500  18.7500 Du        
  14876 ****        -5.0000  -5.2500  19.0000 Du        
  14877 ****        -5.0000  -5.2500  19.2500 Du        
  14878 ****        -5.0000  -5.2500  19.5000 Du        
  14879 ****        -5.0000  -5.2500  19.7500 Du        
  14880 ****        -5.0000  -5.2500  20.0000 Du        
  14881 ****        -5.0000  -5.2500  20.2500 Du        
  14882 ****        -5.0000  -5.2500  20.5000 Du        
  14883 ****        -5.0000  -5.0000  19.0000 Du        
  14884 ****        -5.0000  -5.0000  19.2500 Du        
  14885 ****        -5.0000  -5.0000  19.5000 Du        
  14886 ****        -5.0000  -5.0000  19.7500 Du        
  14887 ****        -5.0000  -5.0000  20.0000 Du        
  14888 ****        -5.0000  -5.0000  20.2500 Du        
  14889 ****        -5.0000  -5.0000  20.5000 Du        
  14890 ****        -5.0000  -4.7500  19.5000 Du        
  14891 ****        -5.0000  -4.7500  19.7500 Du        
  14892 ****        -5.0000  -4.7500  20.0000 Du        
  14893 ****        -5.0000  -4.7500  20.2500 Du        
  14894 ****        -5.0000  -4.7500  20.5000 Du        
  14895 ****        -5.0000  -4.7500  20.7500 Du        
  14896 ****        -5.0000  -4.7500  21.0000 Du        
  14897 ****        -5.0000  -4.5000  20.0000 Du        
  14898 ****        -5.0000  -4.5000  20.2500 Du        
  14899 ****        -5.0000  -4.5000  20.5000 Du        
  14900 ****        -5.0000  -4.5000  20.7500 Du        
  14901 ****        -5.0000  -4.5000  21.0000 Du        
  14902 ****        -5.0000  -4.5000  21.2500 Du        
  14903 ****        -5.0000  -4.2500  20.2500 Du        
  14904 ****        -5.0000  -4.2500  20.5000 Du        
  14905 ****        -5.0000  -4.2500  20.7500 Du        
  14906 ****        -5.0000  -4.2500  21.0000 Du        
  14907 ****        -5.0000  -4.2500  21.2500 Du        
  14908 ****        -5.0000  -4.2500  21.5000 Du        
  14909 ****        -5.0000  -4.0000  20.5000 Du        
  14910 ****        -5.0000  -4.0000  20.7500 Du        
  14911 ****        -5.0000  -4.0000  21.0000 Du        
  14912 ****        -5.0000  -4.0000  21.2500 Du        
  14913 ****        -5.0000  -4.0000  21.5000 Du        
  14914 ****        -5.0000  -4.0000  21.7500 Du        
  14915 ****        -5.0000  -3.7500  21.0000 Du        
  14916 ****        -5.0000  -3.7500  21.2500 Du        
  14917 ****        -5.0000  -3.7500  21.5000 Du        
  14918 ****        -5.0000  -3.7500  21.7500 Du        
  14919 ****        -4.7500  -6.0000  19.2500 Du        
  14920 ****        -4.7500  -6.0000  19.5000 Du        
  14921 ****        -4.7500  -6.0000  19.7500 Du        
  14922 ****        -4.7500  -6.0000  20.0000 Du        
  14923 ****        -4.7500  -5.7500  19.0000 Du        
  14924 ****        -4.7500  -5.7500  19.2500 Du        
  14925 ****        -4.7500  -5.7500  19.5000 Du        
  14926 ****        -4.7500  -5.7500  19.7500 Du        
  14927 ****        -4.7500  -5.7500  20.0000 Du        
  14928 ****        -4.7500  -5.7500  20.2500 Du        
  14929 ****        -4.7500  -5.5000  18.7500 Du        
  14930 ****        -4.7500  -5.5000  19.0000 Du        
  14931 ****        -4.7500  -5.5000  19.2500 Du        
  14932 ****        -4.7500  -5.5000  19.5000 Du        
  14933 ****        -4.7500  -5.5000  19.7500 Du        
  14934 ****        -4.7500  -5.5000  20.0000 Du        
  14935 ****        -4.7500  -5.5000  20.2500 Du        
  14936 ****        -4.7500  -5.2500  18.7500 Du        
  14937 ****        -4.7500  -5.2500  19.0000 Du        
  14938 ****        -4.7500  -5.2500  19.2500 Du        
  14939 ****        -4.7500  -5.2500  19.5000 Du        
  14940 ****        -4.7500  -5.2500  19.7500 Du        
  14941 ****        -4.7500  -5.2500  20.0000 Du        
  14942 ****        -4.7500  -5.2500  20.2500 Du        
  14943 ****        -4.7500  -5.2500  20.5000 Du        
  14944 ****        -4.7500  -5.0000  19.0000 Du        
  14945 ****        -4.7500  -5.0000  19.2500 Du        
  14946 ****        -4.7500  -5.0000  19.5000 Du        
  14947 ****        -4.7500  -5.0000  19.7500 Du        
  14948 ****        -4.7500  -5.0000  20.0000 Du        
  14949 ****        -4.7500  -5.0000  20.2500 Du        
  14950 ****        -4.7500  -5.0000  20.5000 Du        
  14951 ****        -4.7500  -5.0000  20.7500 Du        
  14952 ****        -4.7500  -4.7500  19.2500 Du        
  14953 ****        -4.7500  -4.7500  19.5000 Du        
  14954 ****        -4.7500  -4.7500  19.7500 Du        
  14955 ****        -4.7500  -4.7500  20.0000 Du        
  14956 ****        -4.7500  -4.7500  20.2500 Du        
  14957 ****        -4.7500  -4.7500  20.5000 Du        
  14958 ****        -4.7500  -4.7500  20.7500 Du        
  14959 ****        -4.7500  -4.7500  21.0000 Du        
  14960 ****        -4.7500  -4.5000  19.7500 Du        
  14961 ****        -4.7500  -4.5000  20.0000 Du        
  14962 ****        -4.7500  -4.5000  20.2500 Du        
  14963 ****        -4.7500  -4.5000  20.5000 Du        
  14964 ****        -4.7500  -4.5000  20.7500 Du        
  14965 ****        -4.7500  -4.5000  21.0000 Du        
  14966 ****        -4.7500  -4.5000  21.2500 Du        
  14967 ****        -4.7500  -4.2500  20.0000 Du        
  14968 ****        -4.7500  -4.2500  20.2500 Du        
  14969 ****        -4.7500  -4.2500  20.5000 Du        
  14970 ****        -4.7500  -4.2500  20.7500 Du        
  14971 ****        -4.7500  -4.2500  21.0000 Du        
  14972 ****        -4.7500  -4.2500  21.2500 Du        
  14973 ****        -4.7500  -4.0000  20.5000 Du        
  14974 ****        -4.7500  -4.0000  20.7500 Du        
  14975 ****        -4.7500  -4.0000  21.0000 Du        
  14976 ****        -4.7500  -4.0000  21.2500 Du        
  14977 ****        -4.7500  -4.0000  21.5000 Du        
  14978 ****        -4.7500  -3.7500  20.7500 Du        
  14979 ****        -4.7500  -3.7500  21.0000 Du        
  14980 ****        -4.7500  -3.7500  21.2500 Du        
  14981 ****        -4.5000  -6.0000  19.2500 Du        
  14982 ****        -4.5000  -6.0000  19.5000 Du        
  14983 ****        -4.5000  -6.0000  19.7500 Du        
  14984 ****        -4.5000  -6.0000  20.0000 Du        
  14985 ****        -4.5000  -5.7500  19.0000 Du        
  14986 ****        -4.5000  -5.7500  19.2500 Du        
  14987 ****        -4.5000  -5.7500  19.5000 Du        
  14988 ****        -4.5000  -5.7500  19.7500 Du        
  14989 ****        -4.5000  -5.7500  20.0000 Du        
  14990 ****        -4.5000  -5.7500  20.2500 Du        
  14991 ****        -4.5000  -5.5000  19.0000 Du        
  14992 ****        -4.5000  -5.5000  19.2500 Du        
  14993 ****        -4.5000  -5.5000  19.5000 Du        
  14994 ****        -4.5000  -5.5000  19.7500 Du        
  14995 ****        -4.5000  -5.5000  20.0000 Du        
  14996 ****        -4.5000  -5.5000  20.2500 Du        
  14997 ****        -4.5000  -5.5000  20.5000 Du        
  14998 ****        -4.5000  -5.2500  19.0000 Du        
  14999 ****        -4.5000  -5.2500  19.2500 Du        
  15000 ****        -4.5000  -5.2500  19.5000 Du        
  15001 ****        -4.5000  -5.2500  19.7500 Du        
  15002 ****        -4.5000  -5.2500  20.0000 Du        
  15003 ****        -4.5000  -5.2500  20.2500 Du        
  15004 ****        -4.5000  -5.2500  20.5000 Du        
  15005 ****        -4.5000  -5.2500  20.7500 Du        
  15006 ****        -4.5000  -5.0000  19.2500 Du        
  15007 ****        -4.5000  -5.0000  19.5000 Du        
  15008 ****        -4.5000  -5.0000  19.7500 Du        
  15009 ****        -4.5000  -5.0000  20.0000 Du        
  15010 ****        -4.5000  -5.0000  20.2500 Du        
  15011 ****        -4.5000  -5.0000  20.5000 Du        
  15012 ****        -4.5000  -5.0000  20.7500 Du        
  15013 ****        -4.5000  -4.7500  19.2500 Du        
  15014 ****        -4.5000  -4.7500  19.5000 Du        
  15015 ****        -4.5000  -4.7500  19.7500 Du        
  15016 ****        -4.5000  -4.7500  20.0000 Du        
  15017 ****        -4.5000  -4.7500  20.2500 Du        
  15018 ****        -4.5000  -4.7500  20.5000 Du        
  15019 ****        -4.5000  -4.7500  20.7500 Du        
  15020 ****        -4.5000  -4.7500  21.0000 Du        
  15021 ****        -4.5000  -4.5000  19.7500 Du        
  15022 ****        -4.5000  -4.5000  20.0000 Du        
  15023 ****        -4.5000  -4.5000  20.2500 Du        
  15024 ****        -4.5000  -4.5000  20.5000 Du        
  15025 ****        -4.5000  -4.5000  20.7500 Du        
  15026 ****        -4.5000  -4.5000  21.0000 Du        
  15027 ****        -4.5000  -4.2500  20.0000 Du        
  15028 ****        -4.5000  -4.2500  20.2500 Du        
  15029 ****        -4.5000  -4.2500  20.5000 Du        
  15030 ****        -4.5000  -4.2500  20.7500 Du        
  15031 ****        -4.5000  -4.2500  21.0000 Du        
  15032 ****        -4.5000  -4.2500  21.2500 Du        
  15033 ****        -4.5000  -4.0000  20.2500 Du        
  15034 ****        -4.5000  -4.0000  20.5000 Du        
  15035 ****        -4.5000  -4.0000  20.7500 Du        
  15036 ****        -4.5000  -4.0000  21.0000 Du        
  15037 ****        -4.5000  -4.0000  21.2500 Du        
  15038 ****        -4.5000  -3.7500  20.7500 Du        
  15039 ****        -4.5000  -3.7500  21.0000 Du        
  15040 ****        -4.2500  -6.0000  19.5000 Du        
  15041 ****        -4.2500  -6.0000  19.7500 Du        
  15042 ****        -4.2500  -6.0000  20.0000 Du        
  15043 ****        -4.2500  -5.7500  19.2500 Du        
  15044 ****        -4.2500  -5.7500  19.5000 Du        
  15045 ****        -4.2500  -5.7500  19.7500 Du        
  15046 ****        -4.2500  -5.7500  20.0000 Du        
  15047 ****        -4.2500  -5.7500  20.2500 Du        
  15048 ****        -4.2500  -5.5000  19.2500 Du        
  15049 ****        -4.2500  -5.5000  19.5000 Du        
  15050 ****        -4.2500  -5.5000  19.7500 Du        
  15051 ****        -4.2500  -5.5000  20.0000 Du        
  15052 ****        -4.2500  -5.5000  20.2500 Du        
  15053 ****        -4.2500  -5.5000  20.5000 Du        
  15054 ****        -4.2500  -5.2500  19.2500 Du        
  15055 ****        -4.2500  -5.2500  19.5000 Du        
  15056 ****        -4.2500  -5.2500  19.7500 Du        
  15057 ****        -4.2500  -5.2500  20.0000 Du        
  15058 ****        -4.2500  -5.2500  20.2500 Du        
  15059 ****        -4.2500  -5.2500  20.5000 Du        
  15060 ****        -4.2500  -5.2500  20.7500 Du        
  15061 ****        -4.2500  -5.0000  19.5000 Du        
  15062 ****        -4.2500  -5.0000  19.7500 Du        
  15063 ****        -4.2500  -5.0000  20.0000 Du        
  15064 ****        -4.2500  -5.0000  20.2500 Du        
  15065 ****        -4.2500  -5.0000  20.5000 Du        
  15066 ****        -4.2500  -5.0000  20.7500 Du        
  15067 ****        -4.2500  -4.7500  19.5000 Du        
  15068 ****        -4.2500  -4.7500  19.7500 Du        
  15069 ****        -4.2500  -4.7500  20.0000 Du        
  15070 ****        -4.2500  -4.7500  20.2500 Du        
  15071 ****        -4.2500  -4.7500  20.5000 Du        
  15072 ****        -4.2500  -4.7500  20.7500 Du        
  15073 ****        -4.2500  -4.7500  21.0000 Du        
  15074 ****        -4.2500  -4.5000  19.7500 Du        
  15075 ****        -4.2500  -4.5000  20.0000 Du        
  15076 ****        -4.2500  -4.5000  20.2500 Du        
  15077 ****        -4.2500  -4.5000  20.5000 Du        
  15078 ****        -4.2500  -4.5000  20.7500 Du        
  15079 ****        -4.2500  -4.5000  21.0000 Du        
  15080 ****        -4.2500  -4.2500  20.0000 Du        
  15081 ****        -4.2500  -4.2500  20.2500 Du        
  15082 ****        -4.2500  -4.2500  20.5000 Du        
  15083 ****        -4.2500  -4.2500  20.7500 Du        
  15084 ****        -4.2500  -4.2500  21.0000 Du        
  15085 ****        -4.2500  -4.0000  20.2500 Du        
  15086 ****        -4.2500  -4.0000  20.5000 Du        
  15087 ****        -4.2500  -4.0000  20.7500 Du        
  15088 ****        -4.2500  -4.0000  21.0000 Du        
  15089 ****        -4.0000  -6.0000  19.7500 Du        
  15090 ****        -4.0000  -6.0000  20.0000 Du        
  15091 ****        -4.0000  -5.7500  19.7500 Du        
  15092 ****        -4.0000  -5.7500  20.0000 Du        
  15093 ****        -4.0000  -5.7500  20.2500 Du        
  15094 ****        -4.0000  -5.5000  19.7500 Du        
  15095 ****        -4.0000  -5.5000  20.0000 Du        
  15096 ****        -4.0000  -5.5000  20.2500 Du        
  15097 ****        -4.0000  -5.5000  20.5000 Du        
  15098 ****        -4.0000  -5.2500  19.7500 Du        
  15099 ****        -4.0000  -5.2500  20.0000 Du        
  15100 ****        -4.0000  -5.2500  20.2500 Du        
  15101 ****        -4.0000  -5.2500  20.5000 Du        
  15102 ****        -4.0000  -5.2500  20.7500 Du        
  15103 ****        -4.0000  -5.0000  19.7500 Du        
  15104 ****        -4.0000  -5.0000  20.0000 Du        
  15105 ****        -4.0000  -5.0000  20.2500 Du        
  15106 ****        -4.0000  -5.0000  20.5000 Du        
  15107 ****        -4.0000  -5.0000  20.7500 Du        
  15108 ****        -4.0000  -4.7500  20.0000 Du        
  15109 ****        -4.0000  -4.7500  20.2500 Du        
  15110 ****        -4.0000  -4.7500  20.5000 Du        
  15111 ****        -4.0000  -4.7500  20.7500 Du        
  15112 ****        -4.0000  -4.5000  20.0000 Du        
  15113 ****        -4.0000  -4.5000  20.2500 Du        
  15114 ****        -4.0000  -4.5000  20.5000 Du        
  15115 ****        -4.0000  -4.5000  20.7500 Du        
  15116 ****        -4.0000  -4.2500  20.2500 Du        
  15117 ****        -4.0000  -4.2500  20.5000 Du        
  15118 ****        -4.0000  -4.2500  20.7500 Du        
  15119 ****        -4.0000  -4.2500  21.0000 Du        
  15120 ****        -3.7500  -5.7500  20.0000 Du        
  15121 ****        -3.7500  -5.7500  20.2500 Du        
  15122 ****        -3.7500  -5.5000  20.0000 Du        
  15123 ****        -3.7500  -5.5000  20.2500 Du        
  15124 ****        -3.7500  -5.5000  20.5000 Du        
  15125 ****        -3.7500  -5.2500  20.0000 Du        
  15126 ****        -3.7500  -5.2500  20.2500 Du        
  15127 ****        -3.7500  -5.2500  20.5000 Du        
  15128 ****        -3.7500  -5.0000  20.2500 Du        
  15129 ****        -3.7500  -5.0000  20.5000 Du        
  15130 ****        -3.7500  -4.7500  20.2500 Du        
  15131 ****        -3.7500  -4.7500  20.5000 Du        
  15132 ****        -3.7500  -4.7500  20.7500 Du        
  15133 ****        -3.7500  -4.5000  20.5000 Du        
