#       Name:                CT1002167954
#       Creating user name   hitesit
#       Creation time:       Sun Apr 16 22:50:48 2023


#       File generated by GOLD software.
#

@<TRIPOS>MOLECULE
CT1002167954|ligand_prepared|mol2|1|dock6
    29    30     1
SMALL
NO_CHARGES


@<TRIPOS>ATOM
      1 C1          -9.3888  -7.6090  17.4210 C.3            1 RES1               0.0000
      2 C2          -8.1619  -6.8764  18.0014 C.ar           1 RES1               0.0000
      3 C3          -9.2087  -7.6121  15.9058 C.2            1 RES1               0.0000
      4 C4          -9.3933  -8.9980  18.0498 C.2            1 RES1               0.0000
      5 C5         -10.7375  -6.9295  17.7539 C.3            1 RES1               0.0000
      6 C6          -8.1627  -6.4267  19.3184 C.ar           1 RES1               0.0000
      7 C7          -7.0231  -6.6458  17.2343 C.ar           1 RES1               0.0000
      8 N8          -8.8565  -8.7891  15.3138 N.am           1 RES1               0.0000
      9 O9          -9.3351  -6.5884  15.2452 O.2            1 RES1               0.0000
     10 N10         -9.1884 -10.0754  17.2282 N.am           1 RES1               0.0000
     11 O11         -9.5557  -9.1680  19.2519 O.2            1 RES1               0.0000
     12 C12        -11.9302  -7.5557  17.0486 C.3            1 RES1               0.0000
     13 C13         -7.0638  -5.7728  19.8503 C.ar           1 RES1               0.0000
     14 C14         -5.9252  -5.9914  17.7681 C.ar           1 RES1               0.0000
     15 C15         -8.8897 -10.0318  15.8936 C.2            1 RES1               0.0000
     16 C16         -5.9442  -5.5550  19.0758 C.ar           1 RES1               0.0000
     17 O17         -8.6646 -11.0420  15.2334 O.2            1 RES1               0.0000
     18 H18        -10.9010  -6.9813  18.8374 H              1 RES1               0.0000
     19 H19        -10.6779  -5.8705  17.4740 H              1 RES1               0.0000
     20 H20         -9.0357  -6.5868  19.9424 H              1 RES1               0.0000
     21 H21         -6.9861  -6.9793  16.2028 H              1 RES1               0.0000
     22 H22         -8.5390  -8.7408  14.3509 H              1 RES1               0.0000
     23 H23         -9.2659 -10.9951  17.6506 H              1 RES1               0.0000
     24 H24        -12.8506  -7.0415  17.3169 H              1 RES1               0.0000
     25 H25        -11.8129  -7.4990  15.9684 H              1 RES1               0.0000
     26 H26        -12.0346  -8.6032  17.3237 H              1 RES1               0.0000
     27 H27         -7.0843  -5.4301  20.8796 H              1 RES1               0.0000
     28 H28         -5.0465  -5.8216  17.1547 H              1 RES1               0.0000
     29 H29         -5.0833  -5.0430  19.4928 H              1 RES1               0.0000
@<TRIPOS>BOND
    1    1    2 1     
    2    1    3 1     
    3    1    4 1     
    4    1    5 1     
    5    2    6 ar    
    6    2    7 ar    
    7    3    8 1     
    8    3    9 2     
    9    4   10 1     
   10    4   11 2     
   11    5   12 1     
   12    5   18 1     
   13    5   19 1     
   14    6   13 ar    
   15    6   20 1     
   16    7   14 ar    
   17    7   21 1     
   18    8   15 1     
   19    8   22 1     
   20   10   15 1     
   21   10   23 1     
   22   12   24 1     
   23   12   25 1     
   24   12   26 1     
   25   13   16 ar    
   26   13   27 1     
   27   14   16 ar    
   28   14   28 1     
   29   15   17 2     
   30   16   29 1     
@<TRIPOS>SUBSTRUCTURE
      1 RES1           1
@<TRIPOS>SET
DONOR_HYDROGENS      STATIC     ATOMS    <user>   **** ""
2 22 23
ATOM$RED        STATIC     ATOMS    COLORGROUP SYSTEM
2 22 23
@<TRIPOS>COMMENT
> <Gold.Version>
2022.3.0

> <Gold.Id.Protein>
unknown|3ovv_clean|pdb

> <Gold.Protein.RotatedTorsions>
[ 3725 3716 3715 3713 ] final -144.37 input   59.99 | X-H torsion
[ 3645 3636 3635 3633 ] final  -71.96 input   60.03 | X-H torsion
[ 3915 3906 3905 3903 ] final  -35.64 input   60.03 | X-H torsion
[ 3186 3179 3177 3174 ] final    4.47 input   59.97 | X-H torsion
[ 5212 5203 5202 5200 ] final   76.81 input   59.98 | X-H torsion
[ 2635 2624 2623 2622 ] final -177.06 input   60.00 | X-H torsion
[  602  597  595  592 ] final  -27.02 input   59.96 | X-H torsion
[ 1943 1939 1938 1935 ] final   40.62 input   60.01 | X-H torsion
[ 3236 3227 3226 3224 ] final   -0.86 input   60.01 | X-H torsion
[  622  617  616  613 ] final -105.69 input   59.98 | X-H torsion
[ 3133 3124 3123 3122 ] final   54.40 input   59.98 | X-H torsion
[ 3412 3403 3402 3400 ] final  -81.50 input   59.99 | X-H torsion
[ 3134 3125 3123 3122 ] final  -62.54 input   60.00 | X-H torsion

> <Gold.Protein.ActiveResidues>
 LEU49   GLY50   THR51   GLY52   SER53   PHE54   VAL79   LEU82   LYS83   GLN84  
 HIS87   THR88   GLY126  GLU127  MET128  PHE129  SER130  HIS131  LEU132  ARG133 
 ARG134  ILE135  GLY136  ARG137  ARG165  ASP166  LEU167  LYS168  PRO169  GLU170 
 ASN171  LEU173  ASP184  GLY186  PHE187  TRP196  TPO197  LEU198  CYS199  GLY200 
 THR201  PRO202  GLU203  TYR204  LEU205  ILE209  ILE210  TYR215  VAL226  LEU227 
 TYR229  GLU230  ALA233  GLY234  TYR235  PRO236  PRO237  PHE238  PHE239  ALA240 
 ASP241  GLN242  PRO243  ILE244  GLN245  ILE246  TYR247  ARG256  PHE257  PRO258 
 SER259  HIS260  ASN326  PHE327  ASP328  ASP329  TYR330 

> <Gold.Protein.RotatedAtoms>
   -6.0033   -2.8015   13.5550 H   0  0  0  0  0  0  0  0  0  0  0  0  # atno 602  bound_to 597 
   -7.2337    2.7646   20.8939 H   0  0  0  0  0  0  0  0  0  0  0  0  # atno 622  bound_to 617 
  -14.3069   -7.6115    8.6405 H   0  0  0  0  0  0  0  0  0  0  0  0  # atno 1943 bound_to 1939
  -13.8175   -1.4220   19.2922 H   0  0  0  0  0  0  0  0  0  0  0  0  # atno 2635 bound_to 2624
  -14.8573   -0.6608   18.2507 H   0  0  0  0  0  0  0  0  0  0  0  0  # atno 2636 bound_to 2624
  -15.2210   -0.7534   19.8652 H   0  0  0  0  0  0  0  0  0  0  0  0  # atno 2637 bound_to 2624
  -13.0329    0.3818   34.3973 H   0  0  0  0  0  0  0  0  0  0  0  0  # atno 3133 bound_to 3124
  -16.7737    1.2703   35.9334 H   0  0  0  0  0  0  0  0  0  0  0  0  # atno 3134 bound_to 3125
  -16.0975    0.5781   21.5081 H   0  0  0  0  0  0  0  0  0  0  0  0  # atno 3186 bound_to 3179
  -22.9780   -2.5281   15.5276 H   0  0  0  0  0  0  0  0  0  0  0  0  # atno 3236 bound_to 3227
  -18.9198    1.4752   31.4049 H   0  0  0  0  0  0  0  0  0  0  0  0  # atno 3412 bound_to 3403
  -32.2426    2.9486   12.4723 H   0  0  0  0  0  0  0  0  0  0  0  0  # atno 3645 bound_to 3636
  -32.7258    1.4619    7.3292 H   0  0  0  0  0  0  0  0  0  0  0  0  # atno 3725 bound_to 3716
  -18.2920    7.8320   23.2746 H   0  0  0  0  0  0  0  0  0  0  0  0  # atno 3915 bound_to 3906
   -8.5639   -5.3680   11.5270 H   0  0  0  0  0  0  0  0  0  0  0  0  # atno 5212 bound_to 5203
  -32.6160    3.0805    7.4533 LP  0  0  0  0  0  0  0  0  0  0  0  0  # atno 5527 bound_to 3716
  -32.9615    2.1792    8.7705 LP  0  0  0  0  0  0  0  0  0  0  0  0  # atno 5528 bound_to 3716
  -33.6963    2.2323   12.3238 LP  0  0  0  0  0  0  0  0  0  0  0  0  # atno 5529 bound_to 3636
  -32.5178    1.9275   11.2353 LP  0  0  0  0  0  0  0  0  0  0  0  0  # atno 5530 bound_to 3636
  -17.5899    9.3002   23.2677 LP  0  0  0  0  0  0  0  0  0  0  0  0  # atno 5588 bound_to 3906
  -17.9774    8.5708   21.8590 LP  0  0  0  0  0  0  0  0  0  0  0  0  # atno 5589 bound_to 3906
  -15.8754    0.3736   19.9088 LP  0  0  0  0  0  0  0  0  0  0  0  0  # atno 5590 bound_to 3179
  -16.7623   -0.7037   20.7571 LP  0  0  0  0  0  0  0  0  0  0  0  0  # atno 5591 bound_to 3179
   -8.9689   -5.3935    9.9511 LP  0  0  0  0  0  0  0  0  0  0  0  0  # atno 5600 bound_to 5203
   -8.7674   -3.9683   10.7223 LP  0  0  0  0  0  0  0  0  0  0  0  0  # atno 5601 bound_to 5203
   -4.8338   -1.8945   12.8788 LP  0  0  0  0  0  0  0  0  0  0  0  0  # atno 5606 bound_to 597 
   -5.5509   -1.4080   14.2629 LP  0  0  0  0  0  0  0  0  0  0  0  0  # atno 5607 bound_to 597 
  -13.6894   -7.4238    7.1466 LP  0  0  0  0  0  0  0  0  0  0  0  0  # atno 5610 bound_to 1939
  -13.4186   -8.8032    7.9776 LP  0  0  0  0  0  0  0  0  0  0  0  0  # atno 5611 bound_to 1939
  -24.3942   -2.9519   16.2080 LP  0  0  0  0  0  0  0  0  0  0  0  0  # atno 5640 bound_to 3227
  -23.0818   -3.9075   16.3848 LP  0  0  0  0  0  0  0  0  0  0  0  0  # atno 5641 bound_to 3227
   -7.6142    1.6128   21.9787 LP  0  0  0  0  0  0  0  0  0  0  0  0  # atno 5648 bound_to 617 
   -7.2703    1.2035   20.4357 LP  0  0  0  0  0  0  0  0  0  0  0  0  # atno 5649 bound_to 617 
  -14.3378    0.0310   33.4907 LP  0  0  0  0  0  0  0  0  0  0  0  0  # atno 5673 bound_to 3124
  -13.9884   -0.8698   34.8072 LP  0  0  0  0  0  0  0  0  0  0  0  0  # atno 5674 bound_to 3124
  -18.8003    0.1948   32.4018 LP  0  0  0  0  0  0  0  0  0  0  0  0  # atno 5675 bound_to 3403
  -18.4345    1.6915   32.9428 LP  0  0  0  0  0  0  0  0  0  0  0  0  # atno 5676 bound_to 3403

> <Gold.Score>
     Fitness  S(hb_ext) S(vdw_ext)  S(hb_int)    S(int)      intcor
     42.81       0.07      31.99       0.00      -1.25      -0.76

> <Gold.Goldscore.Fitness>
42.8099

> <Gold.Goldscore.Internal.Vdw>
-1.5691

> <Gold.Goldscore.Internal.Torsion>
-0.4448

> <Gold.Goldscore.External.Vdw>
31.9921

> <Gold.Goldscore.Internal.HBond>
0.0000

> <Gold.Goldscore.External.HBond>
0.0698

> <Gold.Goldscore.Internal.Correction>
-0.7650

> <Gold.Goldscore.Hbonds>
donor molecule, donor type, donor heavy atom, donor atom, acceptor molecule, acceptor atom, score
      L1  H     8    22       P1   568  0.03

> <Gold.Goldscore.Internal.Vdw.Weighted>
-1.5691

> <Gold.Goldscore.Internal.Torsion.Weighted>
-0.4448

> <Gold.Goldscore.External.Vdw.Weighted>
43.9891

> <Gold.Goldscore.Internal.HBond.Weighted>
0.0000

> <Gold.Goldscore.External.HBond.Weighted>
0.0698

> <Gold.Goldscore.Internal.Correction.Weighted>
-0.7650

> <Gold.Rescore>
     Score     S(PLP)   S(hbond)     S(cho)   S(metal)  DE(clash)   DE(tors)     intcor
     37.48     -39.09       0.00       0.00       0.00       0.00       0.81       ----

> <Gold.PLP.Fitness>
37.4762

> <Gold.PLP.PLP>
-39.0936

> <Gold.PLP.part.hbond>
0.0000

> <Gold.PLP.part.metal>
0.0000

> <Gold.PLP.part.buried>
-3.7207

> <Gold.PLP.part.nonpolar>
-35.6431

> <Gold.PLP.part.repulsive>
0.3504

> <Gold.PLP.ligand.clash>
0.0000

> <Gold.PLP.ligand.torsion>
0.8087

> <Gold.PLP.Chemscore.Hbond>
0.0000

> <Gold.PLP.Chemscore.CHOScore>
0.0000

> <Gold.PLP.Chemscore.Metal>
0.0000

> <Gold.PLP.Chemscore.Internal.Correction>
   9.000000E+99

