#       Name:                CT1002167954
#       Creating user name   hitesit
#       Creation time:       Sun Apr 16 22:50:45 2023


#       File generated by GOLD software.
#

@<TRIPOS>MOLECULE
CT1002167954|ligand_prepared|mol2|1|dock4
    29    30     1
SMALL
NO_CHARGES


@<TRIPOS>ATOM
      1 C1          -9.3722  -7.0474  17.1960 C.3            1 RES1               0.0000
      2 C2          -8.1438  -6.5050  17.9547 C.ar           1 RES1               0.0000
      3 C3         -10.4762  -7.2191  18.2352 C.2            1 RES1               0.0000
      4 C4          -9.6912  -6.0228  16.1129 C.2            1 RES1               0.0000
      5 C5          -9.1294  -8.4106  16.5074 C.3            1 RES1               0.0000
      6 C6          -6.9245  -6.3412  17.3041 C.ar           1 RES1               0.0000
      7 C7          -8.2150  -6.1622  19.3023 C.ar           1 RES1               0.0000
      8 N8         -11.4987  -6.3167  18.2257 N.am           1 RES1               0.0000
      9 O9         -10.4301  -8.1092  19.0753 O.2            1 RES1               0.0000
     10 N10        -10.8755  -5.3395  16.2042 N.am           1 RES1               0.0000
     11 O11         -8.9202  -5.7890  15.1903 O.2            1 RES1               0.0000
     12 C12        -10.3695  -8.9944  15.8489 C.3            1 RES1               0.0000
     13 C13         -5.8173  -5.8498  17.9756 C.ar           1 RES1               0.0000
     14 C14         -7.1065  -5.6711  19.9720 C.ar           1 RES1               0.0000
     15 C15        -11.7796  -5.4179  17.2282 C.2            1 RES1               0.0000
     16 C16         -5.9076  -5.5140  19.3096 C.ar           1 RES1               0.0000
     17 O17        -12.7963  -4.7309  17.2664 O.2            1 RES1               0.0000
     18 H18         -8.3498  -8.2875  15.7455 H              1 RES1               0.0000
     19 H19         -8.7583  -9.1226  17.2548 H              1 RES1               0.0000
     20 H20         -6.8338  -6.6024  16.2551 H              1 RES1               0.0000
     21 H21         -9.1476  -6.2785  19.8439 H              1 RES1               0.0000
     22 H22        -12.1111  -6.3094  19.0352 H              1 RES1               0.0000
     23 H23        -11.1043  -4.7145  15.4378 H              1 RES1               0.0000
     24 H24        -10.1440  -9.9503  15.3810 H              1 RES1               0.0000
     25 H25        -11.1571  -9.1536  16.5824 H              1 RES1               0.0000
     26 H26        -10.7511  -8.3234  15.0821 H              1 RES1               0.0000
     27 H27         -4.8757  -5.7293  17.4501 H              1 RES1               0.0000
     28 H28         -7.1819  -5.4088  21.0221 H              1 RES1               0.0000
     29 H29         -5.0401  -5.1287  19.8353 H              1 RES1               0.0000
@<TRIPOS>BOND
    1    1    2 1     
    2    1    3 1     
    3    1    4 1     
    4    1    5 1     
    5    2    6 ar    
    6    2    7 ar    
    7    3    8 1     
    8    3    9 2     
    9    4   10 1     
   10    4   11 2     
   11    5   12 1     
   12    5   18 1     
   13    5   19 1     
   14    6   13 ar    
   15    6   20 1     
   16    7   14 ar    
   17    7   21 1     
   18    8   15 1     
   19    8   22 1     
   20   10   15 1     
   21   10   23 1     
   22   12   24 1     
   23   12   25 1     
   24   12   26 1     
   25   13   16 ar    
   26   13   27 1     
   27   14   16 ar    
   28   14   28 1     
   29   15   17 2     
   30   16   29 1     
@<TRIPOS>SUBSTRUCTURE
      1 RES1           1
@<TRIPOS>SET
DONOR_HYDROGENS      STATIC     ATOMS    <user>   **** ""
2 22 23
ATOM$RED        STATIC     ATOMS    COLORGROUP SYSTEM
2 22 23
@<TRIPOS>COMMENT
> <Gold.Version>
2022.3.0

> <Gold.Id.Protein>
unknown|3ovv_clean|pdb

> <Gold.Protein.RotatedTorsions>
[ 3725 3716 3715 3713 ] final  -77.10 input   59.99 | X-H torsion
[ 3645 3636 3635 3633 ] final   45.65 input   60.03 | X-H torsion
[ 3915 3906 3905 3903 ] final -156.68 input   60.03 | X-H torsion
[ 3186 3179 3177 3174 ] final -149.25 input   59.97 | X-H torsion
[ 5212 5203 5202 5200 ] final   57.69 input   59.98 | X-H torsion
[ 2635 2624 2623 2622 ] final  -33.54 input   60.00 | X-H torsion
[  602  597  595  592 ] final  -10.78 input   59.96 | X-H torsion
[ 1943 1939 1938 1935 ] final  -85.45 input   60.01 | X-H torsion
[ 3236 3227 3226 3224 ] final    6.93 input   60.01 | X-H torsion
[  622  617  616  613 ] final  159.98 input   59.98 | X-H torsion
[ 3133 3124 3123 3122 ] final  -77.38 input   59.98 | X-H torsion
[ 3412 3403 3402 3400 ] final   28.09 input   59.99 | X-H torsion
[ 3134 3125 3123 3122 ] final  139.45 input   60.00 | X-H torsion

> <Gold.Protein.ActiveResidues>
 LEU49   GLY50   THR51   GLY52   SER53   PHE54   VAL79   LEU82   LYS83   GLN84  
 HIS87   THR88   GLY126  GLU127  MET128  PHE129  SER130  HIS131  LEU132  ARG133 
 ARG134  ILE135  GLY136  ARG137  ARG165  ASP166  LEU167  LYS168  PRO169  GLU170 
 ASN171  LEU173  ASP184  GLY186  PHE187  TRP196  TPO197  LEU198  CYS199  GLY200 
 THR201  PRO202  GLU203  TYR204  LEU205  ILE209  ILE210  TYR215  VAL226  LEU227 
 TYR229  GLU230  ALA233  GLY234  TYR235  PRO236  PRO237  PHE238  PHE239  ALA240 
 ASP241  GLN242  PRO243  ILE244  GLN245  ILE246  TYR247  ARG256  PHE257  PRO258 
 SER259  HIS260  ASN326  PHE327  ASP328  ASP329  TYR330 

> <Gold.Protein.RotatedAtoms>
   -6.0967   -2.6931   13.7773 H   0  0  0  0  0  0  0  0  0  0  0  0  # atno 602  bound_to 597 
   -7.5778    2.0282   22.0005 H   0  0  0  0  0  0  0  0  0  0  0  0  # atno 622  bound_to 617 
  -13.6383   -7.5034    7.1151 H   0  0  0  0  0  0  0  0  0  0  0  0  # atno 1943 bound_to 1939
  -15.1621   -0.5306   18.4564 H   0  0  0  0  0  0  0  0  0  0  0  0  # atno 2635 bound_to 2624
  -14.9325   -0.9442   20.0443 H   0  0  0  0  0  0  0  0  0  0  0  0  # atno 2636 bound_to 2624
  -13.8012   -1.3612   18.9071 H   0  0  0  0  0  0  0  0  0  0  0  0  # atno 2637 bound_to 2624
  -14.4365   -0.1191   33.5611 H   0  0  0  0  0  0  0  0  0  0  0  0  # atno 3133 bound_to 3124
  -16.4405   -0.2849   35.0112 H   0  0  0  0  0  0  0  0  0  0  0  0  # atno 3134 bound_to 3125
  -16.1539   -0.0845   19.8096 H   0  0  0  0  0  0  0  0  0  0  0  0  # atno 3186 bound_to 3179
  -22.8807   -2.6078   15.5461 H   0  0  0  0  0  0  0  0  0  0  0  0  # atno 3236 bound_to 3227
  -18.4554    1.8112   32.8230 H   0  0  0  0  0  0  0  0  0  0  0  0  # atno 3412 bound_to 3403
  -32.4844    1.9461   11.2463 H   0  0  0  0  0  0  0  0  0  0  0  0  # atno 3645 bound_to 3636
  -32.9332    1.4620    8.3452 H   0  0  0  0  0  0  0  0  0  0  0  0  # atno 3725 bound_to 3716
  -17.5912    9.3038   23.2498 H   0  0  0  0  0  0  0  0  0  0  0  0  # atno 3915 bound_to 3906
   -8.6129   -5.6104   11.3385 H   0  0  0  0  0  0  0  0  0  0  0  0  # atno 5212 bound_to 5203
  -32.5852    2.1790    6.9267 LP  0  0  0  0  0  0  0  0  0  0  0  0  # atno 5527 bound_to 3716
  -32.7835    3.0806    8.2737 LP  0  0  0  0  0  0  0  0  0  0  0  0  # atno 5528 bound_to 3716
  -32.2684    2.9615   12.4997 LP  0  0  0  0  0  0  0  0  0  0  0  0  # atno 5529 bound_to 3636
  -33.7023    2.2077   12.2936 LP  0  0  0  0  0  0  0  0  0  0  0  0  # atno 5530 bound_to 3636
  -17.9847    8.5553   21.8593 LP  0  0  0  0  0  0  0  0  0  0  0  0  # atno 5588 bound_to 3906
  -18.2882    7.8337   23.2924 LP  0  0  0  0  0  0  0  0  0  0  0  0  # atno 5589 bound_to 3906
  -16.7454   -0.5050   21.2664 LP  0  0  0  0  0  0  0  0  0  0  0  0  # atno 5590 bound_to 3179
  -15.8356    0.8420   21.1093 LP  0  0  0  0  0  0  0  0  0  0  0  0  # atno 5591 bound_to 3179
   -8.9961   -5.1016    9.8411 LP  0  0  0  0  0  0  0  0  0  0  0  0  # atno 5600 bound_to 5203
   -8.6909   -4.0161   11.0222 LP  0  0  0  0  0  0  0  0  0  0  0  0  # atno 5601 bound_to 5203
   -4.9328   -2.1258   12.7917 LP  0  0  0  0  0  0  0  0  0  0  0  0  # atno 5606 bound_to 597 
   -5.3578   -1.2859   14.1261 LP  0  0  0  0  0  0  0  0  0  0  0  0  # atno 5607 bound_to 597 
  -13.4587   -8.8096    8.0690 LP  0  0  0  0  0  0  0  0  0  0  0  0  # atno 5610 bound_to 1939
  -14.3226   -7.5262    8.5915 LP  0  0  0  0  0  0  0  0  0  0  0  0  # atno 5611 bound_to 1939
  -24.3775   -2.8454   16.1390 LP  0  0  0  0  0  0  0  0  0  0  0  0  # atno 5640 bound_to 3227
  -23.1966   -3.9337   16.4352 LP  0  0  0  0  0  0  0  0  0  0  0  0  # atno 5641 bound_to 3227
   -7.3753    0.9788   20.7734 LP  0  0  0  0  0  0  0  0  0  0  0  0  # atno 5648 bound_to 617 
   -7.1627    2.5790   20.5266 LP  0  0  0  0  0  0  0  0  0  0  0  0  # atno 5649 bound_to 617 
  -13.8296   -0.8131   34.9018 LP  0  0  0  0  0  0  0  0  0  0  0  0  # atno 5673 bound_to 3124
  -13.0831    0.4787   34.2382 LP  0  0  0  0  0  0  0  0  0  0  0  0  # atno 5674 bound_to 3124
  -18.9543    1.3155   31.3557 LP  0  0  0  0  0  0  0  0  0  0  0  0  # atno 5675 bound_to 3403
  -18.7484    0.2324   32.5603 LP  0  0  0  0  0  0  0  0  0  0  0  0  # atno 5676 bound_to 3403

> <Gold.Score>
     Fitness  S(hb_ext) S(vdw_ext)  S(hb_int)    S(int)      intcor
     38.77       0.04      29.70       0.00      -2.11      -0.77

> <Gold.Goldscore.Fitness>
38.7663

> <Gold.Goldscore.Internal.Vdw>
-2.4766

> <Gold.Goldscore.Internal.Torsion>
-0.4001

> <Gold.Goldscore.External.Vdw>
29.6951

> <Gold.Goldscore.Internal.HBond>
0.0000

> <Gold.Goldscore.External.HBond>
0.0437

> <Gold.Goldscore.Internal.Correction>
-0.7686

> <Gold.Goldscore.Hbonds>
donor molecule, donor type, donor heavy atom, donor atom, acceptor molecule, acceptor atom, score
      L1  H     8    22       P1  2674  0.02

> <Gold.Goldscore.Internal.Vdw.Weighted>
-2.4766

> <Gold.Goldscore.Internal.Torsion.Weighted>
-0.4001

> <Gold.Goldscore.External.Vdw.Weighted>
40.8307

> <Gold.Goldscore.Internal.HBond.Weighted>
0.0000

> <Gold.Goldscore.External.HBond.Weighted>
0.0437

> <Gold.Goldscore.Internal.Correction.Weighted>
-0.7686

> <Gold.Rescore>
     Score     S(PLP)   S(hbond)     S(cho)   S(metal)  DE(clash)   DE(tors)     intcor
     33.88     -33.74       0.53       0.00       0.00       1.37       0.04       ----

> <Gold.PLP.Fitness>
33.8763

> <Gold.PLP.PLP>
-33.7403

> <Gold.PLP.part.hbond>
-1.4401

> <Gold.PLP.part.metal>
0.0000

> <Gold.PLP.part.buried>
-1.6901

> <Gold.PLP.part.nonpolar>
-32.5815

> <Gold.PLP.part.repulsive>
0.6061

> <Gold.PLP.ligand.clash>
1.3657

> <Gold.PLP.ligand.torsion>
0.0412

> <Gold.PLP.Chemscore.Hbond>
0.5280

> <Gold.PLP.Chemscore.CHOScore>
0.0000

> <Gold.PLP.Chemscore.Metal>
0.0000

> <Gold.Chemscore.Hbonds>
donor molecule, donor type, donor heavy atom, donor atom, acceptor molecule, acceptor atom, score
      L1  H     8    22       P1  2674  0.50

> <Gold.PLP.Chemscore.Internal.Correction>
   9.000000E+99

