#       Name:                CT1002167954
#       Creating user name   hitesit
#       Creation time:       Sun Apr 16 22:50:43 2023


#       File generated by GOLD software.
#

@<TRIPOS>MOLECULE
CT1002167954|ligand_prepared|mol2|1|dock2
    29    30     1
SMALL
NO_CHARGES


@<TRIPOS>ATOM
      1 C1          -9.1286  -2.0380  22.8582 C.3            1 RES1               0.0000
      2 C2          -9.0651  -0.9753  23.9741 C.ar           1 RES1               0.0000
      3 C3         -10.5033  -2.6913  22.9664 C.2            1 RES1               0.0000
      4 C4          -8.8943  -1.2950  21.5476 C.2            1 RES1               0.0000
      5 C5          -8.0502  -3.1395  22.9823 C.3            1 RES1               0.0000
      6 C6          -9.2839   0.3686  23.6862 C.ar           1 RES1               0.0000
      7 C7          -8.7919  -1.3231  25.2944 C.ar           1 RES1               0.0000
      8 N8         -11.4316  -2.3703  22.0202 N.am           1 RES1               0.0000
      9 O9         -10.7813  -3.4459  23.8903 O.2            1 RES1               0.0000
     10 N10         -9.9252  -1.2420  20.6464 N.am           1 RES1               0.0000
     11 O11         -7.8318  -0.7407  21.2944 O.2            1 RES1               0.0000
     12 C12         -7.9449  -4.0351  21.7580 C.3            1 RES1               0.0000
     13 C13         -9.2344   1.3296  24.6823 C.ar           1 RES1               0.0000
     14 C14         -8.7426  -0.3605  26.2890 C.ar           1 RES1               0.0000
     15 C15        -11.1932  -1.7197  20.8364 C.2            1 RES1               0.0000
     16 C16         -8.9642   0.9657  25.9843 C.ar           1 RES1               0.0000
     17 O17        -12.0822  -1.5858  20.0003 O.2            1 RES1               0.0000
     18 H18         -7.0774  -2.6633  23.1562 H              1 RES1               0.0000
     19 H19         -8.2799  -3.7617  23.8561 H              1 RES1               0.0000
     20 H20         -9.4955   0.6741  22.6669 H              1 RES1               0.0000
     21 H21         -8.6133  -2.3603  25.5571 H              1 RES1               0.0000
     22 H22        -12.3918  -2.6389  22.2105 H              1 RES1               0.0000
     23 H23         -9.7291  -0.8061  19.7509 H              1 RES1               0.0000
     24 H24         -7.1741  -4.7901  21.8976 H              1 RES1               0.0000
     25 H25         -8.8879  -4.5443  21.5703 H              1 RES1               0.0000
     26 H26         -7.6925  -3.4525  20.8745 H              1 RES1               0.0000
     27 H27         -9.4081   2.3721  24.4371 H              1 RES1               0.0000
     28 H28         -8.5290  -0.6512  27.3123 H              1 RES1               0.0000
     29 H29         -8.9258   1.7187  26.7646 H              1 RES1               0.0000
@<TRIPOS>BOND
    1    1    2 1     
    2    1    3 1     
    3    1    4 1     
    4    1    5 1     
    5    2    6 ar    
    6    2    7 ar    
    7    3    8 1     
    8    3    9 2     
    9    4   10 1     
   10    4   11 2     
   11    5   12 1     
   12    5   18 1     
   13    5   19 1     
   14    6   13 ar    
   15    6   20 1     
   16    7   14 ar    
   17    7   21 1     
   18    8   15 1     
   19    8   22 1     
   20   10   15 1     
   21   10   23 1     
   22   12   24 1     
   23   12   25 1     
   24   12   26 1     
   25   13   16 ar    
   26   13   27 1     
   27   14   16 ar    
   28   14   28 1     
   29   15   17 2     
   30   16   29 1     
@<TRIPOS>SUBSTRUCTURE
      1 RES1           1
@<TRIPOS>SET
DONOR_HYDROGENS      STATIC     ATOMS    <user>   **** ""
2 22 23
ATOM$RED        STATIC     ATOMS    COLORGROUP SYSTEM
2 22 23
@<TRIPOS>COMMENT
> <Gold.Version>
2022.3.0

> <Gold.Id.Protein>
unknown|3ovv_clean|pdb

> <Gold.Protein.RotatedTorsions>
[ 3725 3716 3715 3713 ] final  124.87 input   59.99 | X-H torsion
[ 3645 3636 3635 3633 ] final -111.82 input   60.03 | X-H torsion
[ 3915 3906 3905 3903 ] final  -17.60 input   60.03 | X-H torsion
[ 3186 3179 3177 3174 ] final  -28.33 input   59.97 | X-H torsion
[ 5212 5203 5202 5200 ] final -109.92 input   59.98 | X-H torsion
[ 2635 2624 2623 2622 ] final  -56.09 input   60.00 | X-H torsion
[  602  597  595  592 ] final  131.70 input   59.96 | X-H torsion
[ 1943 1939 1938 1935 ] final   91.68 input   60.01 | X-H torsion
[ 3236 3227 3226 3224 ] final   24.07 input   60.01 | X-H torsion
[  622  617  616  613 ] final   52.59 input   59.98 | X-H torsion
[ 3133 3124 3123 3122 ] final  137.92 input   59.98 | X-H torsion
[ 3412 3403 3402 3400 ] final  154.01 input   59.99 | X-H torsion
[ 3134 3125 3123 3122 ] final  -41.27 input   60.00 | X-H torsion

> <Gold.Protein.ActiveResidues>
 LEU49   GLY50   THR51   GLY52   SER53   PHE54   VAL79   LEU82   LYS83   GLN84  
 HIS87   THR88   GLY126  GLU127  MET128  PHE129  SER130  HIS131  LEU132  ARG133 
 ARG134  ILE135  GLY136  ARG137  ARG165  ASP166  LEU167  LYS168  PRO169  GLU170 
 ASN171  LEU173  ASP184  GLY186  PHE187  TRP196  TPO197  LEU198  CYS199  GLY200 
 THR201  PRO202  GLU203  TYR204  LEU205  ILE209  ILE210  TYR215  VAL226  LEU227 
 TYR229  GLU230  ALA233  GLY234  TYR235  PRO236  PRO237  PHE238  PHE239  ALA240 
 ASP241  GLN242  PRO243  ILE244  GLN245  ILE246  TYR247  ARG256  PHE257  PRO258 
 SER259  HIS260  ASN326  PHE327  ASP328  ASP329  TYR330 

> <Gold.Protein.RotatedAtoms>
   -5.1088   -1.2238   13.8648 H   0  0  0  0  0  0  0  0  0  0  0  0  # atno 602  bound_to 597 
   -7.4254    0.9372   20.9693 H   0  0  0  0  0  0  0  0  0  0  0  0  # atno 622  bound_to 617 
  -14.0005   -8.3509    8.7445 H   0  0  0  0  0  0  0  0  0  0  0  0  # atno 1943 bound_to 1939
  -14.8713   -0.6545   18.2567 H   0  0  0  0  0  0  0  0  0  0  0  0  # atno 2635 bound_to 2624
  -15.2108   -0.7604   19.8750 H   0  0  0  0  0  0  0  0  0  0  0  0  # atno 2636 bound_to 2624
  -13.8137   -1.4212   19.2761 H   0  0  0  0  0  0  0  0  0  0  0  0  # atno 2637 bound_to 2624
  -13.5018   -0.6030   35.0016 H   0  0  0  0  0  0  0  0  0  0  0  0  # atno 3133 bound_to 3124
  -16.8173    1.4401   35.6355 H   0  0  0  0  0  0  0  0  0  0  0  0  # atno 3134 bound_to 3125
  -15.8456    0.8341   21.1199 H   0  0  0  0  0  0  0  0  0  0  0  0  # atno 3186 bound_to 3179
  -22.7079   -2.8147   15.6180 H   0  0  0  0  0  0  0  0  0  0  0  0  # atno 3236 bound_to 3227
  -18.7796    0.2142   32.4699 H   0  0  0  0  0  0  0  0  0  0  0  0  # atno 3412 bound_to 3403
  -32.8092    2.9261   12.7654 H   0  0  0  0  0  0  0  0  0  0  0  0  # atno 3645 bound_to 3636
  -32.5685    2.7653    7.1021 H   0  0  0  0  0  0  0  0  0  0  0  0  # atno 3725 bound_to 3716
  -18.3442    7.7386   23.0011 H   0  0  0  0  0  0  0  0  0  0  0  0  # atno 3915 bound_to 3906
   -8.9512   -4.3615   10.0004 H   0  0  0  0  0  0  0  0  0  0  0  0  # atno 5212 bound_to 5203
  -32.9054    2.6448    8.6893 LP  0  0  0  0  0  0  0  0  0  0  0  0  # atno 5527 bound_to 3716
  -32.8306    1.3019    7.7632 LP  0  0  0  0  0  0  0  0  0  0  0  0  # atno 5528 bound_to 3716
  -33.5952    1.8846   11.7928 LP  0  0  0  0  0  0  0  0  0  0  0  0  # atno 5529 bound_to 3636
  -32.0485    2.2980   11.4711 LP  0  0  0  0  0  0  0  0  0  0  0  0  # atno 5530 bound_to 3636
  -17.6641    9.1309   23.4985 LP  0  0  0  0  0  0  0  0  0  0  0  0  # atno 5588 bound_to 3906
  -17.8506    8.8342   21.9036 LP  0  0  0  0  0  0  0  0  0  0  0  0  # atno 5589 bound_to 3906
  -16.1430   -0.0742   19.8025 LP  0  0  0  0  0  0  0  0  0  0  0  0  # atno 5590 bound_to 3179
  -16.7483   -0.5136   21.2542 LP  0  0  0  0  0  0  0  0  0  0  0  0  # atno 5591 bound_to 3179
   -8.5525   -4.5268   11.5694 LP  0  0  0  0  0  0  0  0  0  0  0  0  # atno 5600 bound_to 5203
   -8.7937   -5.8488   10.6416 LP  0  0  0  0  0  0  0  0  0  0  0  0  # atno 5601 bound_to 5203
   -6.1480   -2.4612   14.0561 LP  0  0  0  0  0  0  0  0  0  0  0  0  # atno 5606 bound_to 597 
   -5.1377   -2.4305   12.7736 LP  0  0  0  0  0  0  0  0  0  0  0  0  # atno 5607 bound_to 597 
  -14.1324   -7.0809    7.7354 LP  0  0  0  0  0  0  0  0  0  0  0  0  # atno 5610 bound_to 1939
  -13.2842   -8.4014    7.2841 LP  0  0  0  0  0  0  0  0  0  0  0  0  # atno 5611 bound_to 1939
  -24.2834   -2.6319   15.9824 LP  0  0  0  0  0  0  0  0  0  0  0  0  # atno 5640 bound_to 3227
  -23.4646   -3.9388   16.5193 LP  0  0  0  0  0  0  0  0  0  0  0  0  # atno 5641 bound_to 3227
   -7.1417    2.4293   20.3851 LP  0  0  0  0  0  0  0  0  0  0  0  0  # atno 5648 bound_to 617 
   -7.5498    2.2273   21.9534 LP  0  0  0  0  0  0  0  0  0  0  0  0  # atno 5649 bound_to 617 
  -13.2944    0.5881   33.9126 LP  0  0  0  0  0  0  0  0  0  0  0  0  # atno 5673 bound_to 3124
  -14.5597   -0.4352   33.7768 LP  0  0  0  0  0  0  0  0  0  0  0  0  # atno 5674 bound_to 3124
  -18.4408    1.7478   32.8953 LP  0  0  0  0  0  0  0  0  0  0  0  0  # atno 5675 bound_to 3403
  -18.9353    1.4090   31.3764 LP  0  0  0  0  0  0  0  0  0  0  0  0  # atno 5676 bound_to 3403

> <Gold.Score>
     Fitness  S(hb_ext) S(vdw_ext)  S(hb_int)    S(int)      intcor
     39.53      11.66      21.06       0.00      -1.10      -0.78

> <Gold.Goldscore.Fitness>
39.5257

> <Gold.Goldscore.Internal.Vdw>
-1.3406

> <Gold.Goldscore.Internal.Torsion>
-0.5426

> <Gold.Goldscore.External.Vdw>
21.0644

> <Gold.Goldscore.Internal.HBond>
0.0000

> <Gold.Goldscore.External.HBond>
11.6616

> <Gold.Goldscore.Internal.Correction>
-0.7838

> <Gold.Goldscore.Hbonds>
donor molecule, donor type, donor heavy atom, donor atom, acceptor molecule, acceptor atom, score
      P1  H  2624  2637       L1    17  1.00
      P1  H   617   622       L1    11  0.25
      P1  H   612   618       L1    11  1.00
      L1  H     8    22       P1  2592  0.53

> <Gold.Goldscore.Internal.Vdw.Weighted>
-1.3406

> <Gold.Goldscore.Internal.Torsion.Weighted>
-0.5426

> <Gold.Goldscore.External.Vdw.Weighted>
28.9635

> <Gold.Goldscore.Internal.HBond.Weighted>
0.0000

> <Gold.Goldscore.External.HBond.Weighted>
11.6616

> <Gold.Goldscore.Internal.Correction.Weighted>
-0.7838

> <Gold.Rescore>
     Score     S(PLP)   S(hbond)     S(cho)   S(metal)  DE(clash)   DE(tors)     intcor
     40.86     -31.76       4.00       0.00       0.00       0.00       1.45       ----

> <Gold.PLP.Fitness>
40.8580

> <Gold.PLP.PLP>
-31.7639

> <Gold.PLP.part.hbond>
-4.6804

> <Gold.PLP.part.metal>
0.0000

> <Gold.PLP.part.buried>
-3.0335

> <Gold.PLP.part.nonpolar>
-25.4272

> <Gold.PLP.part.repulsive>
0.4831

> <Gold.PLP.ligand.clash>
0.0036

> <Gold.PLP.ligand.torsion>
1.4511

> <Gold.PLP.Chemscore.Hbond>
4.0000

> <Gold.PLP.Chemscore.CHOScore>
0.0000

> <Gold.PLP.Chemscore.Metal>
0.0000

> <Gold.Chemscore.Hbonds>
donor molecule, donor type, donor heavy atom, donor atom, acceptor molecule, acceptor atom, score
      L1  H     8    22       P1  2592  0.32
      P1  H  2624  2637       L1    17  1.00
      P1  H   617   622       L1    11  1.00
      P1  H   612   618       L1    11  0.99

> <Gold.PLP.Chemscore.Internal.Correction>
   9.000000E+99

