#       Name:                CT1002167954
#       Creating user name   hitesit
#       Creation time:       Sun Apr 16 22:50:49 2023


#       File generated by GOLD software.
#

@<TRIPOS>MOLECULE
CT1002167954|ligand_prepared|mol2|1|dock7
    29    30     1
SMALL
NO_CHARGES


@<TRIPOS>ATOM
      1 C1          -9.4472  -7.5804  17.6152 C.3            1 RES1               0.0000
      2 C2          -9.1881  -9.0302  18.0732 C.ar           1 RES1               0.0000
      3 C3         -10.1592  -6.8862  18.7725 C.2            1 RES1               0.0000
      4 C4          -8.0826  -6.9888  17.2796 C.2            1 RES1               0.0000
      5 C5         -10.3375  -7.4728  16.3553 C.3            1 RES1               0.0000
      6 C6          -9.1438  -9.3483  19.4273 C.ar           1 RES1               0.0000
      7 C7          -8.9947 -10.0589  17.1551 C.ar           1 RES1               0.0000
      8 N8          -9.4417  -5.9913  19.5101 N.am           1 RES1               0.0000
      9 O9         -11.3208  -7.1493  19.0581 O.2            1 RES1               0.0000
     10 N10         -7.6197  -5.9603  18.0578 N.am           1 RES1               0.0000
     11 O11         -7.3968  -7.4151  16.3586 O.2            1 RES1               0.0000
     12 C12        -11.5712  -8.3607  16.3987 C.3            1 RES1               0.0000
     13 C13         -8.9172 -10.6482  19.8483 C.ar           1 RES1               0.0000
     14 C14         -8.7680 -11.3581  17.5783 C.ar           1 RES1               0.0000
     15 C15         -8.2238  -5.4552  19.1768 C.2            1 RES1               0.0000
     16 C16         -8.7297 -11.6540  18.9243 C.ar           1 RES1               0.0000
     17 O17         -7.7190  -4.5660  19.8562 O.2            1 RES1               0.0000
     18 H18        -10.6568  -6.4301  16.2366 H              1 RES1               0.0000
     19 H19         -9.7393  -7.7425  15.4761 H              1 RES1               0.0000
     20 H20         -9.2867  -8.5696  20.1691 H              1 RES1               0.0000
     21 H21         -9.0196  -9.8493  16.0911 H              1 RES1               0.0000
     22 H22         -9.8481  -5.6931  20.3911 H              1 RES1               0.0000
     23 H23         -6.7437  -5.5313  17.7767 H              1 RES1               0.0000
     24 H24        -12.1605  -8.2468  15.4912 H              1 RES1               0.0000
     25 H25        -11.2900  -9.4076  16.4910 H              1 RES1               0.0000
     26 H26        -12.2021  -8.1031  17.2470 H              1 RES1               0.0000
     27 H27         -8.8866 -10.8756  20.9088 H              1 RES1               0.0000
     28 H28         -8.6203 -12.1464  16.8475 H              1 RES1               0.0000
     29 H29         -8.5526 -12.6722  19.2544 H              1 RES1               0.0000
@<TRIPOS>BOND
    1    1    2 1     
    2    1    3 1     
    3    1    4 1     
    4    1    5 1     
    5    2    6 ar    
    6    2    7 ar    
    7    3    8 1     
    8    3    9 2     
    9    4   10 1     
   10    4   11 2     
   11    5   12 1     
   12    5   18 1     
   13    5   19 1     
   14    6   13 ar    
   15    6   20 1     
   16    7   14 ar    
   17    7   21 1     
   18    8   15 1     
   19    8   22 1     
   20   10   15 1     
   21   10   23 1     
   22   12   24 1     
   23   12   25 1     
   24   12   26 1     
   25   13   16 ar    
   26   13   27 1     
   27   14   16 ar    
   28   14   28 1     
   29   15   17 2     
   30   16   29 1     
@<TRIPOS>SUBSTRUCTURE
      1 RES1           1
@<TRIPOS>SET
DONOR_HYDROGENS      STATIC     ATOMS    <user>   **** ""
2 22 23
ATOM$RED        STATIC     ATOMS    COLORGROUP SYSTEM
2 22 23
@<TRIPOS>COMMENT
> <Gold.Version>
2022.3.0

> <Gold.Id.Protein>
unknown|3ovv_clean|pdb

> <Gold.Protein.RotatedTorsions>
[ 3725 3716 3715 3713 ] final -177.08 input   59.99 | X-H torsion
[ 3645 3636 3635 3633 ] final   73.16 input   60.03 | X-H torsion
[ 3915 3906 3905 3903 ] final  -72.98 input   60.03 | X-H torsion
[ 3186 3179 3177 3174 ] final  -22.91 input   59.97 | X-H torsion
[ 5212 5203 5202 5200 ] final -170.15 input   59.98 | X-H torsion
[ 2635 2624 2623 2622 ] final   35.49 input   60.00 | X-H torsion
[  602  597  595  592 ] final   61.95 input   59.96 | X-H torsion
[ 1943 1939 1938 1935 ] final -136.74 input   60.01 | X-H torsion
[ 3236 3227 3226 3224 ] final  168.89 input   60.01 | X-H torsion
[  622  617  616  613 ] final   80.90 input   59.98 | X-H torsion
[ 3133 3124 3123 3122 ] final -125.16 input   59.98 | X-H torsion
[ 3412 3403 3402 3400 ] final  145.79 input   59.99 | X-H torsion
[ 3134 3125 3123 3122 ] final   53.92 input   60.00 | X-H torsion

> <Gold.Protein.ActiveResidues>
 LEU49   GLY50   THR51   GLY52   SER53   PHE54   VAL79   LEU82   LYS83   GLN84  
 HIS87   THR88   GLY126  GLU127  MET128  PHE129  SER130  HIS131  LEU132  ARG133 
 ARG134  ILE135  GLY136  ARG137  ARG165  ASP166  LEU167  LYS168  PRO169  GLU170 
 ASN171  LEU173  ASP184  GLY186  PHE187  TRP196  TPO197  LEU198  CYS199  GLY200 
 THR201  PRO202  GLU203  TYR204  LEU205  ILE209  ILE210  TYR215  VAL226  LEU227 
 TYR229  GLU230  ALA233  GLY234  TYR235  PRO236  PRO237  PHE238  PHE239  ALA240 
 ASP241  GLN242  PRO243  ILE244  GLN245  ILE246  TYR247  ARG256  PHE257  PRO258 
 SER259  HIS260  ASN326  PHE327  ASP328  ASP329  TYR330 

> <Gold.Protein.RotatedAtoms>
   -5.8838   -1.7722   14.3594 H   0  0  0  0  0  0  0  0  0  0  0  0  # atno 602  bound_to 597 
   -7.5298    0.9929   21.4116 H   0  0  0  0  0  0  0  0  0  0  0  0  # atno 622  bound_to 617 
  -13.3150   -8.2434    7.1840 H   0  0  0  0  0  0  0  0  0  0  0  0  # atno 1943 bound_to 1939
  -15.4315   -0.5724   19.5057 H   0  0  0  0  0  0  0  0  0  0  0  0  # atno 2635 bound_to 2624
  -14.0057   -1.3928   19.7044 H   0  0  0  0  0  0  0  0  0  0  0  0  # atno 2636 bound_to 2624
  -14.4588   -0.8708   18.1979 H   0  0  0  0  0  0  0  0  0  0  0  0  # atno 2637 bound_to 2624
  -14.5400   -0.6776   34.0632 H   0  0  0  0  0  0  0  0  0  0  0  0  # atno 3133 bound_to 3124
  -16.6970    0.8070   34.4120 H   0  0  0  0  0  0  0  0  0  0  0  0  # atno 3134 bound_to 3125
  -15.8802    0.8069   21.1968 H   0  0  0  0  0  0  0  0  0  0  0  0  # atno 3186 bound_to 3179
  -23.8464   -3.8141   16.5619 H   0  0  0  0  0  0  0  0  0  0  0  0  # atno 3236 bound_to 3227
  -18.7384    0.2514   32.5922 H   0  0  0  0  0  0  0  0  0  0  0  0  # atno 3412 bound_to 3403
  -32.9017    1.7943   11.2784 H   0  0  0  0  0  0  0  0  0  0  0  0  # atno 3645 bound_to 3636
  -32.6252    1.8641    7.0039 H   0  0  0  0  0  0  0  0  0  0  0  0  # atno 3725 bound_to 3716
  -18.0882    8.2363   23.6676 H   0  0  0  0  0  0  0  0  0  0  0  0  # atno 3915 bound_to 3906
   -8.7374   -3.9804   10.8321 H   0  0  0  0  0  0  0  0  0  0  0  0  # atno 5212 bound_to 5203
  -32.7130    3.1725    7.9670 LP  0  0  0  0  0  0  0  0  0  0  0  0  # atno 5527 bound_to 3716
  -32.9659    1.6820    8.5844 LP  0  0  0  0  0  0  0  0  0  0  0  0  # atno 5528 bound_to 3716
  -32.0054    2.8248   12.1633 LP  0  0  0  0  0  0  0  0  0  0  0  0  # atno 5529 bound_to 3636
  -33.5451    2.4972   12.5977 LP  0  0  0  0  0  0  0  0  0  0  0  0  # atno 5530 bound_to 3636
  -17.5541    9.4104   22.6753 LP  0  0  0  0  0  0  0  0  0  0  0  0  # atno 5588 bound_to 3906
  -18.2184    8.0534   22.0557 LP  0  0  0  0  0  0  0  0  0  0  0  0  # atno 5589 bound_to 3906
  -16.0940    0.0002   19.7995 LP  0  0  0  0  0  0  0  0  0  0  0  0  # atno 5590 bound_to 3179
  -16.7625   -0.5606   21.1798 LP  0  0  0  0  0  0  0  0  0  0  0  0  # atno 5591 bound_to 3179
   -8.5800   -5.4677   11.4732 LP  0  0  0  0  0  0  0  0  0  0  0  0  # atno 5600 bound_to 5203
   -8.9816   -5.2918    9.9002 LP  0  0  0  0  0  0  0  0  0  0  0  0  # atno 5601 bound_to 5203
   -5.7173   -2.8406   13.1434 LP  0  0  0  0  0  0  0  0  0  0  0  0  # atno 5606 bound_to 597 
   -4.7878   -1.4987   13.1881 LP  0  0  0  0  0  0  0  0  0  0  0  0  # atno 5607 bound_to 597 
  -13.8982   -8.4976    8.6819 LP  0  0  0  0  0  0  0  0  0  0  0  0  # atno 5610 bound_to 1939
  -14.2087   -7.0929    7.9093 LP  0  0  0  0  0  0  0  0  0  0  0  0  # atno 5611 bound_to 1939
  -22.5765   -3.1592   15.7830 LP  0  0  0  0  0  0  0  0  0  0  0  0  # atno 5640 bound_to 3227
  -24.0247   -2.4048   15.7680 LP  0  0  0  0  0  0  0  0  0  0  0  0  # atno 5641 bound_to 3227
   -7.1361    2.0066   20.2011 LP  0  0  0  0  0  0  0  0  0  0  0  0  # atno 5648 bound_to 617 
   -7.4503    2.5939   21.6921 LP  0  0  0  0  0  0  0  0  0  0  0  0  # atno 5649 bound_to 617 
  -13.2348   -0.3400   34.9743 LP  0  0  0  0  0  0  0  0  0  0  0  0  # atno 5673 bound_to 3124
  -13.5738    0.5680   33.6601 LP  0  0  0  0  0  0  0  0  0  0  0  0  # atno 5674 bound_to 3124
  -18.4566    1.8406   32.7982 LP  0  0  0  0  0  0  0  0  0  0  0  0  # atno 5675 bound_to 3403
  -18.9610    1.2788   31.3503 LP  0  0  0  0  0  0  0  0  0  0  0  0  # atno 5676 bound_to 3403

> <Gold.Score>
     Fitness  S(hb_ext) S(vdw_ext)  S(hb_int)    S(int)      intcor
     45.14       2.93      33.37       0.00      -3.68      -0.76

> <Gold.Goldscore.Fitness>
45.1376

> <Gold.Goldscore.Internal.Vdw>
-3.7590

> <Gold.Goldscore.Internal.Torsion>
-0.6843

> <Gold.Goldscore.External.Vdw>
33.3744

> <Gold.Goldscore.Internal.HBond>
0.0000

> <Gold.Goldscore.External.HBond>
2.9261

> <Gold.Goldscore.Internal.Correction>
-0.7650

> <Gold.Goldscore.Hbonds>
donor molecule, donor type, donor heavy atom, donor atom, acceptor molecule, acceptor atom, score
      L1  H     8    22       P1  2900  0.49

> <Gold.Goldscore.Internal.Vdw.Weighted>
-3.7590

> <Gold.Goldscore.Internal.Torsion.Weighted>
-0.6843

> <Gold.Goldscore.External.Vdw.Weighted>
45.8898

> <Gold.Goldscore.Internal.HBond.Weighted>
0.0000

> <Gold.Goldscore.External.HBond.Weighted>
2.9261

> <Gold.Goldscore.Internal.Correction.Weighted>
-0.7650

> <Gold.Rescore>
     Score     S(PLP)   S(hbond)     S(cho)   S(metal)  DE(clash)   DE(tors)     intcor
     40.36     -37.55       1.77       0.00       0.00       0.00       1.25       ----

> <Gold.PLP.Fitness>
40.3616

> <Gold.PLP.PLP>
-37.5537

> <Gold.PLP.part.hbond>
-2.3768

> <Gold.PLP.part.metal>
0.0000

> <Gold.PLP.part.buried>
8.6958

> <Gold.PLP.part.nonpolar>
-45.4198

> <Gold.PLP.part.repulsive>
1.4872

> <Gold.PLP.ligand.clash>
0.0000

> <Gold.PLP.ligand.torsion>
1.2480

> <Gold.PLP.Chemscore.Hbond>
1.7680

> <Gold.PLP.Chemscore.CHOScore>
0.0000

> <Gold.PLP.Chemscore.Metal>
0.0000

> <Gold.Chemscore.Hbonds>
donor molecule, donor type, donor heavy atom, donor atom, acceptor molecule, acceptor atom, score
      L1  H     8    22       P1  2900  1.00

> <Gold.PLP.Chemscore.Internal.Correction>
   9.000000E+99

