#       Name:                CT1002167954
#       Creating user name   hitesit
#       Creation time:       Sun Apr 16 22:50:41 2023


#       File generated by GOLD software.
#

@<TRIPOS>MOLECULE
CT1002167954|ligand_prepared|mol2|1|dock1
    29    30     1
SMALL
NO_CHARGES


@<TRIPOS>ATOM
      1 C1          -9.2614  -1.9977  23.0711 C.3            1 RES1               0.0000
      2 C2          -9.2226  -0.8650  24.1172 C.ar           1 RES1               0.0000
      3 C3         -10.6425  -2.6368  23.1827 C.2            1 RES1               0.0000
      4 C4          -8.9865  -1.3422  21.7222 C.2            1 RES1               0.0000
      5 C5          -8.1935  -3.0932  23.2965 C.3            1 RES1               0.0000
      6 C6          -9.6406   0.4204  23.7856 C.ar           1 RES1               0.0000
      7 C7          -8.7748  -1.0903  25.4161 C.ar           1 RES1               0.0000
      8 N8         -11.5422  -2.3742  22.1920 N.am           1 RES1               0.0000
      9 O9         -10.9505  -3.3287  24.1454 O.2            1 RES1               0.0000
     10 N10         -9.9916  -1.3436  20.7908 N.am           1 RES1               0.0000
     11 O11         -7.9141  -0.8100  21.4635 O.2            1 RES1               0.0000
     12 C12         -7.9012  -3.9283  22.0598 C.3            1 RES1               0.0000
     13 C13         -9.6146   1.4428  24.7196 C.ar           1 RES1               0.0000
     14 C14         -8.7494  -0.0663  26.3485 C.ar           1 RES1               0.0000
     15 C15        -11.2673  -1.8027  20.9757 C.2            1 RES1               0.0000
     16 C16         -9.1695   1.2002  26.0016 C.ar           1 RES1               0.0000
     17 O17        -12.1318  -1.7198  20.1080 O.2            1 RES1               0.0000
     18 H18         -7.2631  -2.6163  23.6285 H              1 RES1               0.0000
     19 H19         -8.5342  -3.7586  24.0994 H              1 RES1               0.0000
     20 H20         -9.9918   0.6309  22.7810 H              1 RES1               0.0000
     21 H21         -8.4385  -2.0784  25.7111 H              1 RES1               0.0000
     22 H22        -12.5089  -2.6259  22.3723 H              1 RES1               0.0000
     23 H23         -9.7682  -0.9676  19.8749 H              1 RES1               0.0000
     24 H24         -7.1456  -4.6815  22.2727 H              1 RES1               0.0000
     25 H25         -8.7997  -4.4371  21.7168 H              1 RES1               0.0000
     26 H26         -7.5360  -3.3016  21.2488 H              1 RES1               0.0000
     27 H27         -9.9450   2.4381  24.4412 H              1 RES1               0.0000
     28 H28         -8.3977  -0.2617  27.3561 H              1 RES1               0.0000
     29 H29         -9.1496   2.0012  26.7332 H              1 RES1               0.0000
@<TRIPOS>BOND
    1    1    2 1     
    2    1    3 1     
    3    1    4 1     
    4    1    5 1     
    5    2    6 ar    
    6    2    7 ar    
    7    3    8 1     
    8    3    9 2     
    9    4   10 1     
   10    4   11 2     
   11    5   12 1     
   12    5   18 1     
   13    5   19 1     
   14    6   13 ar    
   15    6   20 1     
   16    7   14 ar    
   17    7   21 1     
   18    8   15 1     
   19    8   22 1     
   20   10   15 1     
   21   10   23 1     
   22   12   24 1     
   23   12   25 1     
   24   12   26 1     
   25   13   16 ar    
   26   13   27 1     
   27   14   16 ar    
   28   14   28 1     
   29   15   17 2     
   30   16   29 1     
@<TRIPOS>SUBSTRUCTURE
      1 RES1           1
@<TRIPOS>SET
DONOR_HYDROGENS      STATIC     ATOMS    <user>   **** ""
2 22 23
ATOM$RED        STATIC     ATOMS    COLORGROUP SYSTEM
2 22 23
@<TRIPOS>COMMENT
> <Gold.Version>
2022.3.0

> <Gold.Id.Protein>
unknown|3ovv_clean|pdb

> <Gold.Protein.RotatedTorsions>
[ 3725 3716 3715 3713 ] final  -29.75 input   59.99 | X-H torsion
[ 3645 3636 3635 3633 ] final   70.24 input   60.03 | X-H torsion
[ 3915 3906 3905 3903 ] final  158.43 input   60.03 | X-H torsion
[ 3186 3179 3177 3174 ] final -116.33 input   59.97 | X-H torsion
[ 5212 5203 5202 5200 ] final -159.13 input   59.98 | X-H torsion
[ 2635 2624 2623 2622 ] final  -70.54 input   60.00 | X-H torsion
[  602  597  595  592 ] final    3.06 input   59.96 | X-H torsion
[ 1943 1939 1938 1935 ] final   27.43 input   60.01 | X-H torsion
[ 3236 3227 3226 3224 ] final  -37.48 input   60.01 | X-H torsion
[  622  617  616  613 ] final -160.39 input   59.98 | X-H torsion
[ 3133 3124 3123 3122 ] final  111.65 input   59.98 | X-H torsion
[ 3412 3403 3402 3400 ] final   31.25 input   59.99 | X-H torsion
[ 3134 3125 3123 3122 ] final  -73.85 input   60.00 | X-H torsion

> <Gold.Protein.ActiveResidues>
 LEU49   GLY50   THR51   GLY52   SER53   PHE54   VAL79   LEU82   LYS83   GLN84  
 HIS87   THR88   GLY126  GLU127  MET128  PHE129  SER130  HIS131  LEU132  ARG133 
 ARG134  ILE135  GLY136  ARG137  ARG165  ASP166  LEU167  LYS168  PRO169  GLU170 
 ASN171  LEU173  ASP184  GLY186  PHE187  TRP196  TPO197  LEU198  CYS199  GLY200 
 THR201  PRO202  GLU203  TYR204  LEU205  ILE209  ILE210  TYR215  VAL226  LEU227 
 TYR229  GLU230  ALA233  GLY234  TYR235  PRO236  PRO237  PHE238  PHE239  ALA240 
 ASP241  GLN242  PRO243  ILE244  GLN245  ILE246  TYR247  ARG256  PHE257  PRO258 
 SER259  HIS260  ASN326  PHE327  ASP328  ASP329  TYR330 

> <Gold.Protein.RotatedAtoms>
   -6.1366   -2.5589   13.9542 H   0  0  0  0  0  0  0  0  0  0  0  0  # atno 602  bound_to 597 
   -7.4526    2.5752   21.7040 H   0  0  0  0  0  0  0  0  0  0  0  0  # atno 622  bound_to 617 
  -14.3291   -7.4399    8.5129 H   0  0  0  0  0  0  0  0  0  0  0  0  # atno 1943 bound_to 1939
  -14.6625   -0.7588   18.1983 H   0  0  0  0  0  0  0  0  0  0  0  0  # atno 2635 bound_to 2624
  -15.3448   -0.6558   19.7047 H   0  0  0  0  0  0  0  0  0  0  0  0  # atno 2636 bound_to 2624
  -13.8884   -1.4215   19.5049 H   0  0  0  0  0  0  0  0  0  0  0  0  # atno 2637 bound_to 2624
  -13.2101   -0.2967   34.9567 H   0  0  0  0  0  0  0  0  0  0  0  0  # atno 3133 bound_to 3124
  -16.7420    1.1396   36.0598 H   0  0  0  0  0  0  0  0  0  0  0  0  # atno 3134 bound_to 3125
  -15.8851    0.3625   19.9078 H   0  0  0  0  0  0  0  0  0  0  0  0  # atno 3186 bound_to 3179
  -23.5266   -2.3195   15.5683 H   0  0  0  0  0  0  0  0  0  0  0  0  # atno 3236 bound_to 3227
  -18.4493    1.7759   32.8602 H   0  0  0  0  0  0  0  0  0  0  0  0  # atno 3412 bound_to 3403
  -32.8567    1.8046   11.2667 H   0  0  0  0  0  0  0  0  0  0  0  0  # atno 3645 bound_to 3636
  -32.9628    2.0925    8.7533 H   0  0  0  0  0  0  0  0  0  0  0  0  # atno 3725 bound_to 3716
  -17.5745    9.3809   22.5392 H   0  0  0  0  0  0  0  0  0  0  0  0  # atno 3915 bound_to 3906
   -8.7819   -3.9782   10.6579 H   0  0  0  0  0  0  0  0  0  0  0  0  # atno 5212 bound_to 5203
  -32.7094    1.5086    7.2560 LP  0  0  0  0  0  0  0  0  0  0  0  0  # atno 5527 bound_to 3716
  -32.6293    3.1159    7.5332 LP  0  0  0  0  0  0  0  0  0  0  0  0  # atno 5528 bound_to 3716
  -32.0253    2.8449   12.2021 LP  0  0  0  0  0  0  0  0  0  0  0  0  # atno 5529 bound_to 3636
  -33.5705    2.4667   12.5707 LP  0  0  0  0  0  0  0  0  0  0  0  0  # atno 5530 bound_to 3636
  -18.2613    7.9577   22.1501 LP  0  0  0  0  0  0  0  0  0  0  0  0  # atno 5588 bound_to 3906
  -18.0284    8.3537   23.7171 LP  0  0  0  0  0  0  0  0  0  0  0  0  # atno 5589 bound_to 3906
  -16.7640   -0.7019   20.7701 LP  0  0  0  0  0  0  0  0  0  0  0  0  # atno 5590 bound_to 3179
  -16.0875    0.5889   21.5068 LP  0  0  0  0  0  0  0  0  0  0  0  0  # atno 5591 bound_to 3179
   -8.5567   -5.3120   11.5626 LP  0  0  0  0  0  0  0  0  0  0  0  0  # atno 5600 bound_to 5203
   -8.9601   -5.4497    9.9862 LP  0  0  0  0  0  0  0  0  0  0  0  0  # atno 5601 bound_to 5203
   -5.0511   -2.3181   12.7660 LP  0  0  0  0  0  0  0  0  0  0  0  0  # atno 5606 bound_to 597 
   -5.1993   -1.2288   13.9736 LP  0  0  0  0  0  0  0  0  0  0  0  0  # atno 5607 bound_to 597 
  -13.5752   -7.5949    7.0790 LP  0  0  0  0  0  0  0  0  0  0  0  0  # atno 5610 bound_to 1939
  -13.5104   -8.8049    8.1737 LP  0  0  0  0  0  0  0  0  0  0  0  0  # atno 5611 bound_to 1939
  -24.2512   -3.4630   16.4715 LP  0  0  0  0  0  0  0  0  0  0  0  0  # atno 5640 bound_to 3227
  -22.6722   -3.6064   16.0804 LP  0  0  0  0  0  0  0  0  0  0  0  0  # atno 5641 bound_to 3227
   -7.5291    0.9796   21.3937 LP  0  0  0  0  0  0  0  0  0  0  0  0  # atno 5648 bound_to 617 
   -7.1351    2.0275   20.2049 LP  0  0  0  0  0  0  0  0  0  0  0  0  # atno 5649 bound_to 617 
  -13.6161    0.5559   33.6316 LP  0  0  0  0  0  0  0  0  0  0  0  0  # atno 5673 bound_to 3124
  -14.5317   -0.7114   34.1029 LP  0  0  0  0  0  0  0  0  0  0  0  0  # atno 5674 bound_to 3124
  -18.9445    1.3656   31.3655 LP  0  0  0  0  0  0  0  0  0  0  0  0  # atno 5675 bound_to 3403
  -18.7644    0.2178   32.5130 LP  0  0  0  0  0  0  0  0  0  0  0  0  # atno 5676 bound_to 3403

> <Gold.Score>
     Fitness  S(hb_ext) S(vdw_ext)  S(hb_int)    S(int)      intcor
     38.80      11.18      20.90       0.00      -1.12      -0.79

> <Gold.Goldscore.Fitness>
38.7986

> <Gold.Goldscore.Internal.Vdw>
-0.9586

> <Gold.Goldscore.Internal.Torsion>
-0.9444

> <Gold.Goldscore.External.Vdw>
20.8973

> <Gold.Goldscore.Internal.HBond>
0.0000

> <Gold.Goldscore.External.HBond>
11.1819

> <Gold.Goldscore.Internal.Correction>
-0.7859

> <Gold.Goldscore.Hbonds>
donor molecule, donor type, donor heavy atom, donor atom, acceptor molecule, acceptor atom, score
      P1  H  2624  2637       L1    17  1.00
      P1  H   612   618       L1    11  1.00
      L1  H     8    22       P1  2592  0.53

> <Gold.Goldscore.Internal.Vdw.Weighted>
-0.9586

> <Gold.Goldscore.Internal.Torsion.Weighted>
-0.9444

> <Gold.Goldscore.External.Vdw.Weighted>
28.7338

> <Gold.Goldscore.Internal.HBond.Weighted>
0.0000

> <Gold.Goldscore.External.HBond.Weighted>
11.1819

> <Gold.Goldscore.Internal.Correction.Weighted>
-0.7859

> <Gold.Rescore>
     Score     S(PLP)   S(hbond)     S(cho)   S(metal)  DE(clash)   DE(tors)     intcor
     40.59     -32.84       3.00       0.00       0.00       0.00       0.63       ----

> <Gold.PLP.Fitness>
40.5876

> <Gold.PLP.PLP>
-32.8435

> <Gold.PLP.part.hbond>
-4.6361

> <Gold.PLP.part.metal>
0.0000

> <Gold.PLP.part.buried>
-4.9386

> <Gold.PLP.part.nonpolar>
-24.8184

> <Gold.PLP.part.repulsive>
0.4517

> <Gold.PLP.ligand.clash>
0.0000

> <Gold.PLP.ligand.torsion>
0.6280

> <Gold.PLP.Chemscore.Hbond>
3.0000

> <Gold.PLP.Chemscore.CHOScore>
0.0000

> <Gold.PLP.Chemscore.Metal>
0.0000

> <Gold.Chemscore.Hbonds>
donor molecule, donor type, donor heavy atom, donor atom, acceptor molecule, acceptor atom, score
      L1  H     8    22       P1  2592  0.63
      P1  H  2624  2637       L1    17  1.00
      P1  H   612   618       L1    11  1.00

> <Gold.PLP.Chemscore.Internal.Correction>
   9.000000E+99

