#       Name:                CT1002167954
#       Creating user name   hitesit
#       Creation time:       Sun Apr 16 22:50:44 2023


#       File generated by GOLD software.
#

@<TRIPOS>MOLECULE
CT1002167954|ligand_prepared|mol2|1|dock3
    29    30     1
SMALL
NO_CHARGES


@<TRIPOS>ATOM
      1 C1          -9.7436  -7.6199  17.1099 C.3            1 RES1               0.0000
      2 C2          -9.3587  -8.8722  17.9238 C.ar           1 RES1               0.0000
      3 C3         -11.2504  -7.4470  17.2767 C.2            1 RES1               0.0000
      4 C4          -8.9188  -6.4709  17.6793 C.2            1 RES1               0.0000
      5 C5          -9.4263  -7.7338  15.6006 C.3            1 RES1               0.0000
      6 C6          -9.1383 -10.0904  17.2880 C.ar           1 RES1               0.0000
      7 C7          -9.2178  -8.8243  19.3082 C.ar           1 RES1               0.0000
      8 N8         -11.6851  -6.4378  18.0845 N.am           1 RES1               0.0000
      9 O9         -12.0445  -8.2092  16.7392 O.2            1 RES1               0.0000
     10 N10         -9.5849  -5.4542  18.3119 N.am           1 RES1               0.0000
     11 O11         -7.6967  -6.4451  17.6004 O.2            1 RES1               0.0000
     12 C12         -9.5910  -6.4279  14.8393 C.3            1 RES1               0.0000
     13 C13         -8.7869 -11.2192  18.0096 C.ar           1 RES1               0.0000
     14 C14         -8.8666  -9.9544  20.0279 C.ar           1 RES1               0.0000
     15 C15        -10.9281  -5.4007  18.5673 C.2            1 RES1               0.0000
     16 C16         -8.6504 -11.1519  19.3798 C.ar           1 RES1               0.0000
     17 O17        -11.4463  -4.4785  19.1904 O.2            1 RES1               0.0000
     18 H18         -8.3934  -8.0836  15.4824 H              1 RES1               0.0000
     19 H19        -10.0884  -8.4873  15.1565 H              1 RES1               0.0000
     20 H20         -9.2434 -10.1631  16.2106 H              1 RES1               0.0000
     21 H21         -9.3841  -7.8933  19.8393 H              1 RES1               0.0000
     22 H22        -12.6633  -6.4559  18.3546 H              1 RES1               0.0000
     23 H23         -9.0279  -4.6639  18.6210 H              1 RES1               0.0000
     24 H24         -9.3562  -6.5634  13.7856 H              1 RES1               0.0000
     25 H25        -10.6136  -6.0638  14.9145 H              1 RES1               0.0000
     26 H26         -8.9286  -5.6625  15.2384 H              1 RES1               0.0000
     27 H27         -8.6192 -12.1595  17.4950 H              1 RES1               0.0000
     28 H28         -8.7609  -9.8970  21.1062 H              1 RES1               0.0000
     29 H29         -8.3748 -12.0362  19.9448 H              1 RES1               0.0000
@<TRIPOS>BOND
    1    1    2 1     
    2    1    3 1     
    3    1    4 1     
    4    1    5 1     
    5    2    6 ar    
    6    2    7 ar    
    7    3    8 1     
    8    3    9 2     
    9    4   10 1     
   10    4   11 2     
   11    5   12 1     
   12    5   18 1     
   13    5   19 1     
   14    6   13 ar    
   15    6   20 1     
   16    7   14 ar    
   17    7   21 1     
   18    8   15 1     
   19    8   22 1     
   20   10   15 1     
   21   10   23 1     
   22   12   24 1     
   23   12   25 1     
   24   12   26 1     
   25   13   16 ar    
   26   13   27 1     
   27   14   16 ar    
   28   14   28 1     
   29   15   17 2     
   30   16   29 1     
@<TRIPOS>SUBSTRUCTURE
      1 RES1           1
@<TRIPOS>SET
DONOR_HYDROGENS      STATIC     ATOMS    <user>   **** ""
2 22 23
ATOM$RED        STATIC     ATOMS    COLORGROUP SYSTEM
2 22 23
@<TRIPOS>COMMENT
> <Gold.Version>
2022.3.0

> <Gold.Id.Protein>
unknown|3ovv_clean|pdb

> <Gold.Protein.RotatedTorsions>
[ 3725 3716 3715 3713 ] final   14.39 input   59.99 | X-H torsion
[ 3645 3636 3635 3633 ] final  177.83 input   60.03 | X-H torsion
[ 3915 3906 3905 3903 ] final  -18.71 input   60.03 | X-H torsion
[ 3186 3179 3177 3174 ] final  -60.25 input   59.97 | X-H torsion
[ 5212 5203 5202 5200 ] final   75.25 input   59.98 | X-H torsion
[ 2635 2624 2623 2622 ] final  -51.61 input   60.00 | X-H torsion
[  602  597  595  592 ] final   89.97 input   59.96 | X-H torsion
[ 1943 1939 1938 1935 ] final  143.82 input   60.01 | X-H torsion
[ 3236 3227 3226 3224 ] final  -94.53 input   60.01 | X-H torsion
[  622  617  616  613 ] final -100.13 input   59.98 | X-H torsion
[ 3133 3124 3123 3122 ] final  -93.60 input   59.98 | X-H torsion
[ 3412 3403 3402 3400 ] final   94.59 input   59.99 | X-H torsion
[ 3134 3125 3123 3122 ] final   89.14 input   60.00 | X-H torsion

> <Gold.Protein.ActiveResidues>
 LEU49   GLY50   THR51   GLY52   SER53   PHE54   VAL79   LEU82   LYS83   GLN84  
 HIS87   THR88   GLY126  GLU127  MET128  PHE129  SER130  HIS131  LEU132  ARG133 
 ARG134  ILE135  GLY136  ARG137  ARG165  ASP166  LEU167  LYS168  PRO169  GLU170 
 ASN171  LEU173  ASP184  GLY186  PHE187  TRP196  TPO197  LEU198  CYS199  GLY200 
 THR201  PRO202  GLU203  TYR204  LEU205  ILE209  ILE210  TYR215  VAL226  LEU227 
 TYR229  GLU230  ALA233  GLY234  TYR235  PRO236  PRO237  PHE238  PHE239  ALA240 
 ASP241  GLN242  PRO243  ILE244  GLN245  ILE246  TYR247  ARG256  PHE257  PRO258 
 SER259  HIS260  ASN326  PHE327  ASP328  ASP329  TYR330 

> <Gold.Protein.RotatedAtoms>
   -5.5841   -1.4419   14.2784 H   0  0  0  0  0  0  0  0  0  0  0  0  # atno 602  bound_to 597 
   -7.2153    2.7376   20.8091 H   0  0  0  0  0  0  0  0  0  0  0  0  # atno 622  bound_to 617 
  -13.5419   -8.7921    8.2229 H   0  0  0  0  0  0  0  0  0  0  0  0  # atno 1943 bound_to 1939
  -14.9334   -0.6257   18.2864 H   0  0  0  0  0  0  0  0  0  0  0  0  # atno 2635 bound_to 2624
  -15.1614   -0.7955   19.9187 H   0  0  0  0  0  0  0  0  0  0  0  0  # atno 2636 bound_to 2624
  -13.8009   -1.4149   19.2028 H   0  0  0  0  0  0  0  0  0  0  0  0  # atno 2637 bound_to 2624
  -14.5301   -0.3272   33.6941 H   0  0  0  0  0  0  0  0  0  0  0  0  # atno 3133 bound_to 3124
  -16.5723    0.2550   34.4413 H   0  0  0  0  0  0  0  0  0  0  0  0  # atno 3134 bound_to 3125
  -15.7227    0.8540   20.6201 H   0  0  0  0  0  0  0  0  0  0  0  0  # atno 3186 bound_to 3179
  -24.2664   -2.6189   15.9715 H   0  0  0  0  0  0  0  0  0  0  0  0  # atno 3236 bound_to 3227
  -18.5062    0.8272   33.1105 H   0  0  0  0  0  0  0  0  0  0  0  0  # atno 3412 bound_to 3403
  -33.6497    2.3333   12.4394 H   0  0  0  0  0  0  0  0  0  0  0  0  # atno 3645 bound_to 3636
  -32.8753    2.7752    8.6090 H   0  0  0  0  0  0  0  0  0  0  0  0  # atno 3725 bound_to 3716
  -18.3421    7.7420   23.0187 H   0  0  0  0  0  0  0  0  0  0  0  0  # atno 3915 bound_to 3906
   -8.5672   -5.3901   11.5146 H   0  0  0  0  0  0  0  0  0  0  0  0  # atno 5212 bound_to 5203
  -32.8618    1.3029    7.9166 LP  0  0  0  0  0  0  0  0  0  0  0  0  # atno 5527 bound_to 3716
  -32.5651    2.6338    7.0180 LP  0  0  0  0  0  0  0  0  0  0  0  0  # atno 5528 bound_to 3716
  -32.6652    1.8631   11.2319 LP  0  0  0  0  0  0  0  0  0  0  0  0  # atno 5529 bound_to 3636
  -32.1323    2.9163   12.3604 LP  0  0  0  0  0  0  0  0  0  0  0  0  # atno 5530 bound_to 3636
  -17.6587    9.1431   23.4861 LP  0  0  0  0  0  0  0  0  0  0  0  0  # atno 5588 bound_to 3906
  -17.8582    8.8185   21.8982 LP  0  0  0  0  0  0  0  0  0  0  0  0  # atno 5589 bound_to 3906
  -16.4353   -0.4630   19.9823 LP  0  0  0  0  0  0  0  0  0  0  0  0  # atno 5590 bound_to 3179
  -16.5798   -0.1448   21.5775 LP  0  0  0  0  0  0  0  0  0  0  0  0  # atno 5591 bound_to 3179
   -8.9720   -5.3712    9.9386 LP  0  0  0  0  0  0  0  0  0  0  0  0  # atno 5600 bound_to 5203
   -8.7610   -3.9683   10.7473 LP  0  0  0  0  0  0  0  0  0  0  0  0  # atno 5601 bound_to 5203
   -5.9861   -2.8197   13.5118 LP  0  0  0  0  0  0  0  0  0  0  0  0  # atno 5606 bound_to 597 
   -4.8208   -1.8523   12.9013 LP  0  0  0  0  0  0  0  0  0  0  0  0  # atno 5607 bound_to 597 
  -14.3326   -7.3926    8.4766 LP  0  0  0  0  0  0  0  0  0  0  0  0  # atno 5610 bound_to 1939
  -13.5458   -7.6453    7.0682 LP  0  0  0  0  0  0  0  0  0  0  0  0  # atno 5611 bound_to 1939
  -23.4867   -3.9360   16.5243 LP  0  0  0  0  0  0  0  0  0  0  0  0  # atno 5640 bound_to 3227
  -22.6915   -2.8319   15.6213 LP  0  0  0  0  0  0  0  0  0  0  0  0  # atno 5641 bound_to 3227
   -7.6111    1.7017   22.0001 LP  0  0  0  0  0  0  0  0  0  0  0  0  # atno 5648 bound_to 617 
   -7.2920    1.1418   20.4997 LP  0  0  0  0  0  0  0  0  0  0  0  0  # atno 5649 bound_to 617 
  -13.6090   -0.6901   34.9854 LP  0  0  0  0  0  0  0  0  0  0  0  0  # atno 5673 bound_to 3124
  -13.2094    0.5653   34.0206 LP  0  0  0  0  0  0  0  0  0  0  0  0  # atno 5674 bound_to 3124
  -18.6552    2.0373   32.0329 LP  0  0  0  0  0  0  0  0  0  0  0  0  # atno 5675 bound_to 3403
  -18.9963    0.5020   31.5934 LP  0  0  0  0  0  0  0  0  0  0  0  0  # atno 5676 bound_to 3403

> <Gold.Score>
     Fitness  S(hb_ext) S(vdw_ext)  S(hb_int)    S(int)      intcor
     44.88       1.12      32.24       0.00      -0.56      -0.77

> <Gold.Goldscore.Fitness>
44.8819

> <Gold.Goldscore.Internal.Vdw>
-0.8282

> <Gold.Goldscore.Internal.Torsion>
-0.5046

> <Gold.Goldscore.External.Vdw>
32.2404

> <Gold.Goldscore.Internal.HBond>
0.0000

> <Gold.Goldscore.External.HBond>
1.1155

> <Gold.Goldscore.Internal.Correction>
-0.7686

> <Gold.Goldscore.Hbonds>
donor molecule, donor type, donor heavy atom, donor atom, acceptor molecule, acceptor atom, score
      L1  H     8    22       P1  2674  0.56

> <Gold.Goldscore.Internal.Vdw.Weighted>
-0.8282

> <Gold.Goldscore.Internal.Torsion.Weighted>
-0.5046

> <Gold.Goldscore.External.Vdw.Weighted>
44.3305

> <Gold.Goldscore.Internal.HBond.Weighted>
0.0000

> <Gold.Goldscore.External.HBond.Weighted>
1.1155

> <Gold.Goldscore.Internal.Correction.Weighted>
-0.7686

> <Gold.Rescore>
     Score     S(PLP)   S(hbond)     S(cho)   S(metal)  DE(clash)   DE(tors)     intcor
     41.37     -36.45       1.80       0.00       0.00       0.00       0.25       ----

> <Gold.PLP.Fitness>
41.3697

> <Gold.PLP.PLP>
-36.4524

> <Gold.PLP.part.hbond>
-3.5641

> <Gold.PLP.part.metal>
0.0000

> <Gold.PLP.part.buried>
3.1806

> <Gold.PLP.part.nonpolar>
-39.9311

> <Gold.PLP.part.repulsive>
3.4162

> <Gold.PLP.ligand.clash>
0.0000

> <Gold.PLP.ligand.torsion>
0.2470

> <Gold.PLP.Chemscore.Hbond>
1.8038

> <Gold.PLP.Chemscore.CHOScore>
0.0000

> <Gold.PLP.Chemscore.Metal>
0.0000

> <Gold.Chemscore.Hbonds>
donor molecule, donor type, donor heavy atom, donor atom, acceptor molecule, acceptor atom, score
      L1  H     8    22       P1  2674  1.00

> <Gold.PLP.Chemscore.Internal.Correction>
   9.000000E+99

