#       Name:                CT1002167954
#       Creating user name   hitesit
#       Creation time:       Sun Apr 16 22:50:53 2023


#       File generated by GOLD software.
#

@<TRIPOS>MOLECULE
CT1002167954|ligand_prepared|mol2|1|dock10
    29    30     1
SMALL
NO_CHARGES


@<TRIPOS>ATOM
      1 C1          -9.5290  -6.3157  17.0187 C.3            1 RES1               0.0000
      2 C2          -8.2348  -6.0315  17.8079 C.ar           1 RES1               0.0000
      3 C3         -10.1537  -4.9568  16.7165 C.2            1 RES1               0.0000
      4 C4          -9.1096  -7.0972  15.7786 C.2            1 RES1               0.0000
      5 C5         -10.5596  -7.1684  17.7948 C.3            1 RES1               0.0000
      6 C6          -6.9916  -6.1331  17.1907 C.ar           1 RES1               0.0000
      7 C7          -8.2680  -5.6647  19.1507 C.ar           1 RES1               0.0000
      8 N8         -10.0722  -4.4947  15.4360 N.am           1 RES1               0.0000
      9 O9         -10.6751  -4.2832  17.5966 O.2            1 RES1               0.0000
     10 N10         -9.2792  -6.5014  14.5563 N.am           1 RES1               0.0000
     11 O11         -8.6183  -8.2170  15.8499 O.2            1 RES1               0.0000
     12 C12        -11.7397  -7.6228  16.9504 C.3            1 RES1               0.0000
     13 C13         -5.8241  -5.8746  17.8895 C.ar           1 RES1               0.0000
     14 C14         -7.0993  -5.4068  19.8478 C.ar           1 RES1               0.0000
     15 C15         -9.7130  -5.2235  14.3307 C.2            1 RES1               0.0000
     16 C16         -5.8771  -5.5109  19.2183 C.ar           1 RES1               0.0000
     17 O17         -9.7872  -4.7397  13.2049 O.2            1 RES1               0.0000
     18 H18        -10.0529  -8.0535  18.1988 H              1 RES1               0.0000
     19 H19        -10.9367  -6.5820  18.6419 H              1 RES1               0.0000
     20 H20         -6.9300  -6.4205  16.1463 H              1 RES1               0.0000
     21 H21         -9.2181  -5.5776  19.6667 H              1 RES1               0.0000
     22 H22        -10.2993  -3.5167  15.2863 H              1 RES1               0.0000
     23 H23         -9.0620  -7.0626  13.7388 H              1 RES1               0.0000
     24 H24        -12.4320  -8.2170  17.5430 H              1 RES1               0.0000
     25 H25        -12.2818  -6.7672  16.5529 H              1 RES1               0.0000
     26 H26        -11.4033  -8.2299  16.1125 H              1 RES1               0.0000
     27 H27         -4.8648  -5.9592  17.3899 H              1 RES1               0.0000
     28 H28         -7.1457  -5.1215  20.8936 H              1 RES1               0.0000
     29 H29         -4.9624  -5.3080  19.7654 H              1 RES1               0.0000
@<TRIPOS>BOND
    1    1    2 1     
    2    1    3 1     
    3    1    4 1     
    4    1    5 1     
    5    2    6 ar    
    6    2    7 ar    
    7    3    8 1     
    8    3    9 2     
    9    4   10 1     
   10    4   11 2     
   11    5   12 1     
   12    5   18 1     
   13    5   19 1     
   14    6   13 ar    
   15    6   20 1     
   16    7   14 ar    
   17    7   21 1     
   18    8   15 1     
   19    8   22 1     
   20   10   15 1     
   21   10   23 1     
   22   12   24 1     
   23   12   25 1     
   24   12   26 1     
   25   13   16 ar    
   26   13   27 1     
   27   14   16 ar    
   28   14   28 1     
   29   15   17 2     
   30   16   29 1     
@<TRIPOS>SUBSTRUCTURE
      1 RES1           1
@<TRIPOS>SET
DONOR_HYDROGENS      STATIC     ATOMS    <user>   **** ""
2 22 23
ATOM$RED        STATIC     ATOMS    COLORGROUP SYSTEM
2 22 23
@<TRIPOS>COMMENT
> <Gold.Version>
2022.3.0

> <Gold.Id.Protein>
unknown|3ovv_clean|pdb

> <Gold.Protein.RotatedTorsions>
[ 3725 3716 3715 3713 ] final -150.56 input   59.99 | X-H torsion
[ 3645 3636 3635 3633 ] final    6.57 input   60.03 | X-H torsion
[ 3915 3906 3905 3903 ] final  -78.82 input   60.03 | X-H torsion
[ 3186 3179 3177 3174 ] final   76.67 input   59.97 | X-H torsion
[ 5212 5203 5202 5200 ] final   -7.74 input   59.98 | X-H torsion
[ 2635 2624 2623 2622 ] final  -74.62 input   60.00 | X-H torsion
[  602  597  595  592 ] final  -25.70 input   59.96 | X-H torsion
[ 1943 1939 1938 1935 ] final  148.59 input   60.01 | X-H torsion
[ 3236 3227 3226 3224 ] final  -70.52 input   60.01 | X-H torsion
[  622  617  616  613 ] final -176.73 input   59.98 | X-H torsion
[ 3133 3124 3123 3122 ] final -111.89 input   59.98 | X-H torsion
[ 3412 3403 3402 3400 ] final  104.64 input   59.99 | X-H torsion
[ 3134 3125 3123 3122 ] final  179.24 input   60.00 | X-H torsion

> <Gold.Protein.ActiveResidues>
 LEU49   GLY50   THR51   GLY52   SER53   PHE54   VAL79   LEU82   LYS83   GLN84  
 HIS87   THR88   GLY126  GLU127  MET128  PHE129  SER130  HIS131  LEU132  ARG133 
 ARG134  ILE135  GLY136  ARG137  ARG165  ASP166  LEU167  LYS168  PRO169  GLU170 
 ASN171  LEU173  ASP184  GLY186  PHE187  TRP196  TPO197  LEU198  CYS199  GLY200 
 THR201  PRO202  GLU203  TYR204  LEU205  ILE209  ILE210  TYR215  VAL226  LEU227 
 TYR229  GLU230  ALA233  GLY234  TYR235  PRO236  PRO237  PHE238  PHE239  ALA240 
 ASP241  GLN242  PRO243  ILE244  GLN245  ILE246  TYR247  ARG256  PHE257  PRO258 
 SER259  HIS260  ASN326  PHE327  ASP328  ASP329  TYR330 

> <Gold.Protein.RotatedAtoms>
   -6.0126   -2.7949   13.5732 H   0  0  0  0  0  0  0  0  0  0  0  0  # atno 602  bound_to 597 
   -7.5128    2.3774   21.8714 H   0  0  0  0  0  0  0  0  0  0  0  0  # atno 622  bound_to 617 
  -13.5053   -8.8012    8.1547 H   0  0  0  0  0  0  0  0  0  0  0  0  # atno 1943 bound_to 1939
  -14.6025   -0.7908   18.1925 H   0  0  0  0  0  0  0  0  0  0  0  0  # atno 2635 bound_to 2624
  -15.3748   -0.6293   19.6495 H   0  0  0  0  0  0  0  0  0  0  0  0  # atno 2636 bound_to 2624
  -13.9184   -1.4160   19.5659 H   0  0  0  0  0  0  0  0  0  0  0  0  # atno 2637 bound_to 2624
  -14.5644   -0.5440   33.8949 H   0  0  0  0  0  0  0  0  0  0  0  0  # atno 3133 bound_to 3124
  -16.4314   -0.2740   35.6484 H   0  0  0  0  0  0  0  0  0  0  0  0  # atno 3134 bound_to 3125
  -16.6848   -0.3528   21.4284 H   0  0  0  0  0  0  0  0  0  0  0  0  # atno 3186 bound_to 3179
  -24.0130   -2.4052   15.7667 H   0  0  0  0  0  0  0  0  0  0  0  0  # atno 3236 bound_to 3227
  -18.5436    0.6782   33.0533 H   0  0  0  0  0  0  0  0  0  0  0  0  # atno 3412 bound_to 3403
  -32.0405    2.3133   11.4922 H   0  0  0  0  0  0  0  0  0  0  0  0  # atno 3645 bound_to 3636
  -32.7047    1.5221    7.2509 H   0  0  0  0  0  0  0  0  0  0  0  0  # atno 3725 bound_to 3716
  -18.0488    8.3171   23.6992 H   0  0  0  0  0  0  0  0  0  0  0  0  # atno 3915 bound_to 3906
   -8.8609   -5.7678   10.3702 H   0  0  0  0  0  0  0  0  0  0  0  0  # atno 5212 bound_to 5203
  -32.6314    3.1205    7.5455 LP  0  0  0  0  0  0  0  0  0  0  0  0  # atno 5527 bound_to 3716
  -32.9674    2.0785    8.7571 LP  0  0  0  0  0  0  0  0  0  0  0  0  # atno 5528 bound_to 3716
  -32.8351    2.9250   12.7740 LP  0  0  0  0  0  0  0  0  0  0  0  0  # atno 5529 bound_to 3636
  -33.5825    1.8745   11.7718 LP  0  0  0  0  0  0  0  0  0  0  0  0  # atno 5530 bound_to 3636
  -17.5639    9.3955   22.5810 LP  0  0  0  0  0  0  0  0  0  0  0  0  # atno 5588 bound_to 3906
  -18.2483    7.9870   22.1182 LP  0  0  0  0  0  0  0  0  0  0  0  0  # atno 5589 bound_to 3906
  -15.7644    0.8779   20.8925 LP  0  0  0  0  0  0  0  0  0  0  0  0  # atno 5590 bound_to 3179
  -16.2820   -0.2708   19.8536 LP  0  0  0  0  0  0  0  0  0  0  0  0  # atno 5591 bound_to 3179
   -8.9027   -4.1505   10.1951 LP  0  0  0  0  0  0  0  0  0  0  0  0  # atno 5600 bound_to 5203
   -8.5345   -4.8086   11.6435 LP  0  0  0  0  0  0  0  0  0  0  0  0  # atno 5601 bound_to 5203
   -4.8400   -1.9131   12.8696 LP  0  0  0  0  0  0  0  0  0  0  0  0  # atno 5606 bound_to 597 
   -5.5353   -1.3961   14.2538 LP  0  0  0  0  0  0  0  0  0  0  0  0  # atno 5607 bound_to 597 
  -14.3305   -7.4498    8.5303 LP  0  0  0  0  0  0  0  0  0  0  0  0  # atno 5610 bound_to 1939
  -13.5849   -7.5789    7.0832 LP  0  0  0  0  0  0  0  0  0  0  0  0  # atno 5611 bound_to 1939
  -23.8580   -3.8154   16.5641 LP  0  0  0  0  0  0  0  0  0  0  0  0  # atno 5640 bound_to 3227
  -22.5755   -3.1678   15.7878 LP  0  0  0  0  0  0  0  0  0  0  0  0  # atno 5641 bound_to 3227
   -7.4708    0.9254   21.1379 LP  0  0  0  0  0  0  0  0  0  0  0  0  # atno 5648 bound_to 617 
   -7.1327    2.2808   20.2921 LP  0  0  0  0  0  0  0  0  0  0  0  0  # atno 5649 bound_to 617 
  -13.3779   -0.5007   35.0075 LP  0  0  0  0  0  0  0  0  0  0  0  0  # atno 5673 bound_to 3124
  -13.4060    0.5943   33.7964 LP  0  0  0  0  0  0  0  0  0  0  0  0  # atno 5674 bound_to 3124
  -18.6064    2.0557   32.1896 LP  0  0  0  0  0  0  0  0  0  0  0  0  # atno 5675 bound_to 3403
  -19.0074    0.6336   31.4943 LP  0  0  0  0  0  0  0  0  0  0  0  0  # atno 5676 bound_to 3403

> <Gold.Score>
     Fitness  S(hb_ext) S(vdw_ext)  S(hb_int)    S(int)      intcor
     34.81       0.04      26.40       0.00      -1.53      -0.76

> <Gold.Goldscore.Fitness>
34.8124

> <Gold.Goldscore.Internal.Vdw>
-1.8148

> <Gold.Goldscore.Internal.Torsion>
-0.4831

> <Gold.Goldscore.External.Vdw>
26.4019

> <Gold.Goldscore.Internal.HBond>
0.0000

> <Gold.Goldscore.External.HBond>
0.0427

> <Gold.Goldscore.Internal.Correction>
-0.7650

> <Gold.Goldscore.Hbonds>
donor molecule, donor type, donor heavy atom, donor atom, acceptor molecule, acceptor atom, score
      P1  H   591   603       L1    17  0.02

> <Gold.Goldscore.Internal.Vdw.Weighted>
-1.8148

> <Gold.Goldscore.Internal.Torsion.Weighted>
-0.4831

> <Gold.Goldscore.External.Vdw.Weighted>
36.3026

> <Gold.Goldscore.Internal.HBond.Weighted>
0.0000

> <Gold.Goldscore.External.HBond.Weighted>
0.0427

> <Gold.Goldscore.Internal.Correction.Weighted>
-0.7650

> <Gold.Rescore>
     Score     S(PLP)   S(hbond)     S(cho)   S(metal)  DE(clash)   DE(tors)     intcor
     33.93     -36.16       0.00       0.00       0.00       2.11       0.06       ----

> <Gold.PLP.Fitness>
33.9324

> <Gold.PLP.PLP>
-36.1628

> <Gold.PLP.part.hbond>
-1.4225

> <Gold.PLP.part.metal>
0.0000

> <Gold.PLP.part.buried>
-4.1211

> <Gold.PLP.part.nonpolar>
-32.1335

> <Gold.PLP.part.repulsive>
0.5227

> <Gold.PLP.ligand.clash>
2.1101

> <Gold.PLP.ligand.torsion>
0.0602

> <Gold.PLP.Chemscore.Hbond>
0.0000

> <Gold.PLP.Chemscore.CHOScore>
0.0000

> <Gold.PLP.Chemscore.Metal>
0.0000

> <Gold.PLP.Chemscore.Internal.Correction>
   9.000000E+99

