#       Name:                CT1002167954
#       Creating user name   hitesit
#       Creation time:       Sun Apr 16 22:50:52 2023


#       File generated by GOLD software.
#

@<TRIPOS>MOLECULE
CT1002167954|ligand_prepared|mol2|1|dock9
    29    30     1
SMALL
NO_CHARGES


@<TRIPOS>ATOM
      1 C1          -9.2688  -7.5041  17.6486 C.3            1 RES1               0.0000
      2 C2          -9.1779  -8.9064  17.0128 C.ar           1 RES1               0.0000
      3 C3          -8.8362  -6.5156  16.5697 C.2            1 RES1               0.0000
      4 C4         -10.7141  -7.3350  18.1038 C.2            1 RES1               0.0000
      5 C5          -8.3545  -7.3167  18.8816 C.3            1 RES1               0.0000
      6 C6          -9.1337 -10.0451  17.8116 C.ar           1 RES1               0.0000
      7 C7          -9.1403  -9.0770  15.6314 C.ar           1 RES1               0.0000
      8 N8          -9.8059  -5.7594  15.9801 N.am           1 RES1               0.0000
      9 O9          -7.6674  -6.4293  16.2138 O.2            1 RES1               0.0000
     10 N10        -11.4751  -6.3792  17.4832 N.am           1 RES1               0.0000
     11 O11        -11.2057  -8.0321  18.9829 O.2            1 RES1               0.0000
     12 C12         -8.2858  -5.8824  19.3817 C.3            1 RES1               0.0000
     13 C13         -9.0575 -11.3088  17.2498 C.ar           1 RES1               0.0000
     14 C14         -9.0639 -10.3417  15.0718 C.ar           1 RES1               0.0000
     15 C15        -11.0956  -5.6047  16.4210 C.2            1 RES1               0.0000
     16 C16         -9.0230 -11.4580  15.8798 C.ar           1 RES1               0.0000
     17 O17        -11.8549  -4.8050  15.8814 O.2            1 RES1               0.0000
     18 H18         -8.7213  -7.9566  19.6937 H              1 RES1               0.0000
     19 H19         -7.3415  -7.6496  18.6239 H              1 RES1               0.0000
     20 H20         -9.1574  -9.9472  18.8918 H              1 RES1               0.0000
     21 H21         -9.1702  -8.2130  14.9763 H              1 RES1               0.0000
     22 H22         -9.5483  -5.2630  15.1330 H              1 RES1               0.0000
     23 H23        -12.4112  -6.2313  17.8469 H              1 RES1               0.0000
     24 H24         -7.6314  -5.8066  20.2475 H              1 RES1               0.0000
     25 H25         -7.9012  -5.2219  18.6074 H              1 RES1               0.0000
     26 H26         -9.2728  -5.5270  19.6708 H              1 RES1               0.0000
     27 H27         -9.0242 -12.1841  17.8901 H              1 RES1               0.0000
     28 H28         -9.0363 -10.4543  13.9930 H              1 RES1               0.0000
     29 H29         -8.9638 -12.4481  15.4399 H              1 RES1               0.0000
@<TRIPOS>BOND
    1    1    2 1     
    2    1    3 1     
    3    1    4 1     
    4    1    5 1     
    5    2    6 ar    
    6    2    7 ar    
    7    3    8 1     
    8    3    9 2     
    9    4   10 1     
   10    4   11 2     
   11    5   12 1     
   12    5   18 1     
   13    5   19 1     
   14    6   13 ar    
   15    6   20 1     
   16    7   14 ar    
   17    7   21 1     
   18    8   15 1     
   19    8   22 1     
   20   10   15 1     
   21   10   23 1     
   22   12   24 1     
   23   12   25 1     
   24   12   26 1     
   25   13   16 ar    
   26   13   27 1     
   27   14   16 ar    
   28   14   28 1     
   29   15   17 2     
   30   16   29 1     
@<TRIPOS>SUBSTRUCTURE
      1 RES1           1
@<TRIPOS>SET
DONOR_HYDROGENS      STATIC     ATOMS    <user>   **** ""
2 22 23
ATOM$RED        STATIC     ATOMS    COLORGROUP SYSTEM
2 22 23
@<TRIPOS>COMMENT
> <Gold.Version>
2022.3.0

> <Gold.Id.Protein>
unknown|3ovv_clean|pdb

> <Gold.Protein.RotatedTorsions>
[ 3725 3716 3715 3713 ] final  -52.47 input   59.99 | X-H torsion
[ 3645 3636 3635 3633 ] final  -50.60 input   60.03 | X-H torsion
[ 3915 3906 3905 3903 ] final  109.62 input   60.03 | X-H torsion
[ 3186 3179 3177 3174 ] final  156.58 input   59.97 | X-H torsion
[ 5212 5203 5202 5200 ] final  122.26 input   59.98 | X-H torsion
[ 2635 2624 2623 2622 ] final  147.15 input   60.00 | X-H torsion
[  602  597  595  592 ] final   39.79 input   59.96 | X-H torsion
[ 1943 1939 1938 1935 ] final  -50.71 input   60.01 | X-H torsion
[ 3236 3227 3226 3224 ] final -109.17 input   60.01 | X-H torsion
[  622  617  616  613 ] final  -41.54 input   59.98 | X-H torsion
[ 3133 3124 3123 3122 ] final  140.85 input   59.98 | X-H torsion
[ 3412 3403 3402 3400 ] final   77.94 input   59.99 | X-H torsion
[ 3134 3125 3123 3122 ] final   80.12 input   60.00 | X-H torsion

> <Gold.Protein.ActiveResidues>
 LEU49   GLY50   THR51   GLY52   SER53   PHE54   VAL79   LEU82   LYS83   GLN84  
 HIS87   THR88   GLY126  GLU127  MET128  PHE129  SER130  HIS131  LEU132  ARG133 
 ARG134  ILE135  GLY136  ARG137  ARG165  ASP166  LEU167  LYS168  PRO169  GLU170 
 ASN171  LEU173  ASP184  GLY186  PHE187  TRP196  TPO197  LEU198  CYS199  GLY200 
 THR201  PRO202  GLU203  TYR204  LEU205  ILE209  ILE210  TYR215  VAL226  LEU227 
 TYR229  GLU230  ALA233  GLY234  TYR235  PRO236  PRO237  PHE238  PHE239  ALA240 
 ASP241  GLN242  PRO243  ILE244  GLN245  ILE246  TYR247  ARG256  PHE257  PRO258 
 SER259  HIS260  ASN326  PHE327  ASP328  ASP329  TYR330 

> <Gold.Protein.RotatedAtoms>
   -6.0537   -2.0819   14.2911 H   0  0  0  0  0  0  0  0  0  0  0  0  # atno 602  bound_to 597 
   -7.1337    2.0445   20.2155 H   0  0  0  0  0  0  0  0  0  0  0  0  # atno 622  bound_to 617 
  -13.9507   -7.1630    7.4298 H   0  0  0  0  0  0  0  0  0  0  0  0  # atno 1943 bound_to 1939
  -14.0940   -1.3632   19.8076 H   0  0  0  0  0  0  0  0  0  0  0  0  # atno 2635 bound_to 2624
  -14.3407   -0.9404   18.2246 H   0  0  0  0  0  0  0  0  0  0  0  0  # atno 2636 bound_to 2624
  -15.4612   -0.5326   19.3759 H   0  0  0  0  0  0  0  0  0  0  0  0  # atno 2637 bound_to 2624
  -13.5393   -0.6324   34.9966 H   0  0  0  0  0  0  0  0  0  0  0  0  # atno 3133 bound_to 3124
  -16.6041    0.3930   34.4005 H   0  0  0  0  0  0  0  0  0  0  0  0  # atno 3134 bound_to 3125
  -16.6151   -0.6407   20.2627 H   0  0  0  0  0  0  0  0  0  0  0  0  # atno 3186 bound_to 3179
  -24.3562   -2.7952   16.1045 H   0  0  0  0  0  0  0  0  0  0  0  0  # atno 3236 bound_to 3227
  -18.4592    1.0918   33.1465 H   0  0  0  0  0  0  0  0  0  0  0  0  # atno 3412 bound_to 3403
  -32.0359    2.8452   12.2134 H   0  0  0  0  0  0  0  0  0  0  0  0  # atno 3645 bound_to 3636
  -32.9653    1.7479    8.6218 H   0  0  0  0  0  0  0  0  0  0  0  0  # atno 3725 bound_to 3716
  -17.8051    8.9320   21.9526 H   0  0  0  0  0  0  0  0  0  0  0  0  # atno 3915 bound_to 3906
   -8.5417   -4.6493   11.6057 H   0  0  0  0  0  0  0  0  0  0  0  0  # atno 5212 bound_to 5203
  -32.6387    1.7937    7.0286 LP  0  0  0  0  0  0  0  0  0  0  0  0  # atno 5527 bound_to 3716
  -32.6975    3.1778    7.8931 LP  0  0  0  0  0  0  0  0  0  0  0  0  # atno 5528 bound_to 3716
  -33.5775    2.4579   12.5627 LP  0  0  0  0  0  0  0  0  0  0  0  0  # atno 5529 bound_to 3636
  -32.8447    1.8061   11.2570 LP  0  0  0  0  0  0  0  0  0  0  0  0  # atno 5530 bound_to 3636
  -18.3553    7.7170   22.8851 LP  0  0  0  0  0  0  0  0  0  0  0  0  # atno 5588 bound_to 3906
  -17.7023    9.0464   23.5727 LP  0  0  0  0  0  0  0  0  0  0  0  0  # atno 5589 bound_to 3906
  -16.3896    0.1737   21.6537 LP  0  0  0  0  0  0  0  0  0  0  0  0  # atno 5590 bound_to 3179
  -15.7270    0.7232   20.2660 LP  0  0  0  0  0  0  0  0  0  0  0  0  # atno 5591 bound_to 3179
   -8.8250   -5.8268   10.5188 LP  0  0  0  0  0  0  0  0  0  0  0  0  # atno 5600 bound_to 5203
   -8.9337   -4.2589   10.0753 LP  0  0  0  0  0  0  0  0  0  0  0  0  # atno 5601 bound_to 5203
   -5.4589   -2.7222   12.9185 LP  0  0  0  0  0  0  0  0  0  0  0  0  # atno 5606 bound_to 597 
   -4.8750   -1.3051   13.4818 LP  0  0  0  0  0  0  0  0  0  0  0  0  # atno 5607 bound_to 597 
  -13.2945   -8.6469    7.5558 LP  0  0  0  0  0  0  0  0  0  0  0  0  # atno 5610 bound_to 1939
  -14.1722   -8.0318    8.7878 LP  0  0  0  0  0  0  0  0  0  0  0  0  # atno 5611 bound_to 1939
  -23.2561   -3.9412   16.4578 LP  0  0  0  0  0  0  0  0  0  0  0  0  # atno 5640 bound_to 3227
  -22.8318   -2.6491   15.5540 LP  0  0  0  0  0  0  0  0  0  0  0  0  # atno 5641 bound_to 3227
   -7.4600    2.5681   21.7213 LP  0  0  0  0  0  0  0  0  0  0  0  0  # atno 5648 bound_to 617 
   -7.5253    0.9734   21.3763 LP  0  0  0  0  0  0  0  0  0  0  0  0  # atno 5649 bound_to 617 
  -13.2636    0.5820   33.9493 LP  0  0  0  0  0  0  0  0  0  0  0  0  # atno 5673 bound_to 3124
  -14.5527   -0.3995   33.7451 LP  0  0  0  0  0  0  0  0  0  0  0  0  # atno 5674 bound_to 3124
  -18.7395    1.9454   31.7899 LP  0  0  0  0  0  0  0  0  0  0  0  0  # atno 5675 bound_to 3403
  -18.9595    0.3273   31.8001 LP  0  0  0  0  0  0  0  0  0  0  0  0  # atno 5676 bound_to 3403

> <Gold.Score>
     Fitness  S(hb_ext) S(vdw_ext)  S(hb_int)    S(int)      intcor
     41.93       1.29      30.36       0.00      -1.10      -0.76

> <Gold.Goldscore.Fitness>
41.9315

> <Gold.Goldscore.Internal.Vdw>
-1.3783

> <Gold.Goldscore.Internal.Torsion>
-0.4901

> <Gold.Goldscore.External.Vdw>
30.3631

> <Gold.Goldscore.Internal.HBond>
0.0000

> <Gold.Goldscore.External.HBond>
1.2856

> <Gold.Goldscore.Internal.Correction>
-0.7650

> <Gold.Goldscore.Hbonds>
donor molecule, donor type, donor heavy atom, donor atom, acceptor molecule, acceptor atom, score
      L1  H    10    23       P1  2674  0.64

> <Gold.Goldscore.Internal.Vdw.Weighted>
-1.3783

> <Gold.Goldscore.Internal.Torsion.Weighted>
-0.4901

> <Gold.Goldscore.External.Vdw.Weighted>
41.7493

> <Gold.Goldscore.Internal.HBond.Weighted>
0.0000

> <Gold.Goldscore.External.HBond.Weighted>
1.2856

> <Gold.Goldscore.Internal.Correction.Weighted>
-0.7650

> <Gold.Rescore>
     Score     S(PLP)   S(hbond)     S(cho)   S(metal)  DE(clash)   DE(tors)     intcor
     46.58     -45.39       1.00       0.00       0.00       0.60       0.61       ----

> <Gold.PLP.Fitness>
46.5769

> <Gold.PLP.PLP>
-45.3946

> <Gold.PLP.part.hbond>
-3.3011

> <Gold.PLP.part.metal>
0.0000

> <Gold.PLP.part.buried>
0.2252

> <Gold.PLP.part.nonpolar>
-44.8096

> <Gold.PLP.part.repulsive>
1.1405

> <Gold.PLP.ligand.clash>
0.6045

> <Gold.PLP.ligand.torsion>
0.6066

> <Gold.PLP.Chemscore.Hbond>
1.0000

> <Gold.PLP.Chemscore.CHOScore>
0.0000

> <Gold.PLP.Chemscore.Metal>
0.0000

> <Gold.Chemscore.Hbonds>
donor molecule, donor type, donor heavy atom, donor atom, acceptor molecule, acceptor atom, score
      L1  H    10    23       P1  2674  1.00

> <Gold.PLP.Chemscore.Internal.Correction>
   9.000000E+99

