#       Name:                CT1002167954
#       Creating user name   hitesit
#       Creation time:       Sun Apr 16 22:50:50 2023


#       File generated by GOLD software.
#

@<TRIPOS>MOLECULE
CT1002167954|ligand_prepared|mol2|1|dock8
    29    30     1
SMALL
NO_CHARGES


@<TRIPOS>ATOM
      1 C1          -9.3400  -7.3707  17.5740 C.3            1 RES1               0.0000
      2 C2          -9.2068  -8.6693  16.7526 C.ar           1 RES1               0.0000
      3 C3          -8.8914  -6.2362  16.6575 C.2            1 RES1               0.0000
      4 C4         -10.8009  -7.2843  18.0016 C.2            1 RES1               0.0000
      5 C5          -8.4665  -7.3460  18.8499 C.3            1 RES1               0.0000
      6 C6          -8.9633  -8.6199  15.3833 C.ar           1 RES1               0.0000
      7 C7          -9.3223  -9.9219  17.3496 C.ar           1 RES1               0.0000
      8 N8          -9.8552  -5.4169  16.1479 N.am           1 RES1               0.0000
      9 O9          -7.7139  -6.0868  16.3549 O.2            1 RES1               0.0000
     10 N10        -11.5585  -6.2606  17.4958 N.am           1 RES1               0.0000
     11 O11        -11.3072  -8.1030  18.7589 O.2            1 RES1               0.0000
     12 C12         -8.5713  -6.0509  19.6398 C.3            1 RES1               0.0000
     13 C13         -8.8368  -9.7805  14.6382 C.ar           1 RES1               0.0000
     14 C14         -9.1956 -11.0814  16.6026 C.ar           1 RES1               0.0000
     15 C15        -11.1600  -5.3409  16.5643 C.2            1 RES1               0.0000
     16 C16         -8.9524 -11.0119  15.2473 C.ar           1 RES1               0.0000
     17 O17        -11.9158  -4.4831  16.1170 O.2            1 RES1               0.0000
     18 H18         -8.7641  -8.1798  19.4977 H              1 RES1               0.0000
     19 H19         -7.4189  -7.5011  18.5637 H              1 RES1               0.0000
     20 H20         -8.8717  -7.6599  14.8862 H              1 RES1               0.0000
     21 H21         -9.5146 -10.0007  18.4142 H              1 RES1               0.0000
     22 H22         -9.5804  -4.8041  15.3868 H              1 RES1               0.0000
     23 H23        -12.5075  -6.1762  17.8461 H              1 RES1               0.0000
     24 H24         -7.9391  -6.0865  20.5245 H              1 RES1               0.0000
     25 H25         -8.2588  -5.2031  19.0337 H              1 RES1               0.0000
     26 H26         -9.5960  -5.8777  19.9622 H              1 RES1               0.0000
     27 H27         -8.6467  -9.7205  13.5717 H              1 RES1               0.0000
     28 H28         -9.2879 -12.0483  17.0860 H              1 RES1               0.0000
     29 H29         -8.8528 -11.9210  14.6635 H              1 RES1               0.0000
@<TRIPOS>BOND
    1    1    2 1     
    2    1    3 1     
    3    1    4 1     
    4    1    5 1     
    5    2    6 ar    
    6    2    7 ar    
    7    3    8 1     
    8    3    9 2     
    9    4   10 1     
   10    4   11 2     
   11    5   12 1     
   12    5   18 1     
   13    5   19 1     
   14    6   13 ar    
   15    6   20 1     
   16    7   14 ar    
   17    7   21 1     
   18    8   15 1     
   19    8   22 1     
   20   10   15 1     
   21   10   23 1     
   22   12   24 1     
   23   12   25 1     
   24   12   26 1     
   25   13   16 ar    
   26   13   27 1     
   27   14   16 ar    
   28   14   28 1     
   29   15   17 2     
   30   16   29 1     
@<TRIPOS>SUBSTRUCTURE
      1 RES1           1
@<TRIPOS>SET
DONOR_HYDROGENS      STATIC     ATOMS    <user>   **** ""
2 22 23
ATOM$RED        STATIC     ATOMS    COLORGROUP SYSTEM
2 22 23
@<TRIPOS>COMMENT
> <Gold.Version>
2022.3.0

> <Gold.Id.Protein>
unknown|3ovv_clean|pdb

> <Gold.Protein.RotatedTorsions>
[ 3725 3716 3715 3713 ] final  -32.29 input   59.99 | X-H torsion
[ 3645 3636 3635 3633 ] final   25.82 input   60.03 | X-H torsion
[ 3915 3906 3905 3903 ] final  -47.76 input   60.03 | X-H torsion
[ 3186 3179 3177 3174 ] final -173.74 input   59.97 | X-H torsion
[ 5212 5203 5202 5200 ] final   72.98 input   59.98 | X-H torsion
[ 2635 2624 2623 2622 ] final  122.67 input   60.00 | X-H torsion
[  602  597  595  592 ] final    4.50 input   59.96 | X-H torsion
[ 1943 1939 1938 1935 ] final   56.49 input   60.01 | X-H torsion
[ 3236 3227 3226 3224 ] final  179.98 input   60.01 | X-H torsion
[  622  617  616  613 ] final   80.61 input   59.98 | X-H torsion
[ 3133 3124 3123 3122 ] final -170.95 input   59.98 | X-H torsion
[ 3412 3403 3402 3400 ] final  -83.92 input   59.99 | X-H torsion
[ 3134 3125 3123 3122 ] final  104.58 input   60.00 | X-H torsion

> <Gold.Protein.ActiveResidues>
 LEU49   GLY50   THR51   GLY52   SER53   PHE54   VAL79   LEU82   LYS83   GLN84  
 HIS87   THR88   GLY126  GLU127  MET128  PHE129  SER130  HIS131  LEU132  ARG133 
 ARG134  ILE135  GLY136  ARG137  ARG165  ASP166  LEU167  LYS168  PRO169  GLU170 
 ASN171  LEU173  ASP184  GLY186  PHE187  TRP196  TPO197  LEU198  CYS199  GLY200 
 THR201  PRO202  GLU203  TYR204  LEU205  ILE209  ILE210  TYR215  VAL226  LEU227 
 TYR229  GLU230  ALA233  GLY234  TYR235  PRO236  PRO237  PHE238  PHE239  ALA240 
 ASP241  GLN242  PRO243  ILE244  GLN245  ILE246  TYR247  ARG256  PHE257  PRO258 
 SER259  HIS260  ASN326  PHE327  ASP328  ASP329  TYR330 

> <Gold.Protein.RotatedAtoms>
   -6.1385   -2.5430   13.9714 H   0  0  0  0  0  0  0  0  0  0  0  0  # atno 602  bound_to 597 
   -7.5289    0.9912   21.4073 H   0  0  0  0  0  0  0  0  0  0  0  0  # atno 622  bound_to 617 
  -14.2454   -7.8405    8.7435 H   0  0  0  0  0  0  0  0  0  0  0  0  # atno 1943 bound_to 1939
  -14.4102   -1.2281   20.0225 H   0  0  0  0  0  0  0  0  0  0  0  0  # atno 2635 bound_to 2624
  -14.0398   -1.1395   18.4099 H   0  0  0  0  0  0  0  0  0  0  0  0  # atno 2636 bound_to 2624
  -15.4459   -0.4685   18.9757 H   0  0  0  0  0  0  0  0  0  0  0  0  # atno 2637 bound_to 2624
  -14.1723   -0.8909   34.6548 H   0  0  0  0  0  0  0  0  0  0  0  0  # atno 3133 bound_to 3124
  -16.5216    0.0394   34.5605 H   0  0  0  0  0  0  0  0  0  0  0  0  # atno 3134 bound_to 3125
  -16.3785   -0.3894   19.9294 H   0  0  0  0  0  0  0  0  0  0  0  0  # atno 3186 bound_to 3179
  -23.9993   -3.7182   16.5505 H   0  0  0  0  0  0  0  0  0  0  0  0  # atno 3236 bound_to 3227
  -18.9285    1.4387   31.3926 H   0  0  0  0  0  0  0  0  0  0  0  0  # atno 3412 bound_to 3403
  -32.2252    2.1178   11.3319 H   0  0  0  0  0  0  0  0  0  0  0  0  # atno 3645 bound_to 3636
  -32.9647    2.0518    8.7454 H   0  0  0  0  0  0  0  0  0  0  0  0  # atno 3725 bound_to 3716
  -18.2379    7.9361   23.4336 H   0  0  0  0  0  0  0  0  0  0  0  0  # atno 3915 bound_to 3906
   -8.5721   -5.4216   11.4956 H   0  0  0  0  0  0  0  0  0  0  0  0  # atno 5212 bound_to 5203
  -32.7008    1.5355    7.2252 LP  0  0  0  0  0  0  0  0  0  0  0  0  # atno 5527 bound_to 3716
  -32.6360    3.1299    7.5720 LP  0  0  0  0  0  0  0  0  0  0  0  0  # atno 5528 bound_to 3716
  -32.5398    2.9779   12.6771 LP  0  0  0  0  0  0  0  0  0  0  0  0  # atno 5529 bound_to 3636
  -33.6918    2.0183   12.0300 LP  0  0  0  0  0  0  0  0  0  0  0  0  # atno 5530 bound_to 3636
  -17.5599    9.3741   23.0854 LP  0  0  0  0  0  0  0  0  0  0  0  0  # atno 5588 bound_to 3906
  -18.0619    8.3920   21.8812 LP  0  0  0  0  0  0  0  0  0  0  0  0  # atno 5589 bound_to 3906
  -16.6247   -0.2298   21.5303 LP  0  0  0  0  0  0  0  0  0  0  0  0  # atno 5590 bound_to 3179
  -15.7302    0.8738   20.7249 LP  0  0  0  0  0  0  0  0  0  0  0  0  # atno 5591 bound_to 3179
   -8.9762   -5.3382    9.9215 LP  0  0  0  0  0  0  0  0  0  0  0  0  # atno 5600 bound_to 5203
   -8.7518   -3.9695   10.7835 LP  0  0  0  0  0  0  0  0  0  0  0  0  # atno 5601 bound_to 5203
   -5.0650   -2.3373   12.7660 LP  0  0  0  0  0  0  0  0  0  0  0  0  # atno 5606 bound_to 597 
   -5.1835   -1.2256   13.9562 LP  0  0  0  0  0  0  0  0  0  0  0  0  # atno 5607 bound_to 597 
  -13.8344   -7.2550    7.2817 LP  0  0  0  0  0  0  0  0  0  0  0  0  # atno 5610 bound_to 1939
  -13.3356   -8.7413    7.7388 LP  0  0  0  0  0  0  0  0  0  0  0  0  # atno 5611 bound_to 1939
  -22.5740   -3.3157   15.8761 LP  0  0  0  0  0  0  0  0  0  0  0  0  # atno 5640 bound_to 3227
  -23.8734   -2.3450   15.6863 LP  0  0  0  0  0  0  0  0  0  0  0  0  # atno 5641 bound_to 3227
   -7.1359    2.0113   20.2019 LP  0  0  0  0  0  0  0  0  0  0  0  0  # atno 5648 bound_to 617 
   -7.4514    2.5909   21.6956 LP  0  0  0  0  0  0  0  0  0  0  0  0  # atno 5649 bound_to 617 
  -12.9996    0.2349   34.5838 LP  0  0  0  0  0  0  0  0  0  0  0  0  # atno 5673 bound_to 3124
  -14.1792    0.2081   33.4549 LP  0  0  0  0  0  0  0  0  0  0  0  0  # atno 5674 bound_to 3124
  -18.7884    0.2009   32.4393 LP  0  0  0  0  0  0  0  0  0  0  0  0  # atno 5675 bound_to 3403
  -18.4377    1.7223   32.9178 LP  0  0  0  0  0  0  0  0  0  0  0  0  # atno 5676 bound_to 3403

> <Gold.Score>
     Fitness  S(hb_ext) S(vdw_ext)  S(hb_int)    S(int)      intcor
     39.50       1.41      29.23       0.00      -2.11      -0.76

> <Gold.Goldscore.Fitness>
39.5004

> <Gold.Goldscore.Internal.Vdw>
-2.5018

> <Gold.Goldscore.Internal.Torsion>
-0.3708

> <Gold.Goldscore.External.Vdw>
29.2319

> <Gold.Goldscore.Internal.HBond>
0.0000

> <Gold.Goldscore.External.HBond>
1.4142

> <Gold.Goldscore.Internal.Correction>
-0.7650

> <Gold.Goldscore.Hbonds>
donor molecule, donor type, donor heavy atom, donor atom, acceptor molecule, acceptor atom, score
      L1  H    10    23       P1  2674  0.71

> <Gold.Goldscore.Internal.Vdw.Weighted>
-2.5018

> <Gold.Goldscore.Internal.Torsion.Weighted>
-0.3708

> <Gold.Goldscore.External.Vdw.Weighted>
40.1938

> <Gold.Goldscore.Internal.HBond.Weighted>
0.0000

> <Gold.Goldscore.External.HBond.Weighted>
1.4142

> <Gold.Goldscore.Internal.Correction.Weighted>
-0.7650

> <Gold.Rescore>
     Score     S(PLP)   S(hbond)     S(cho)   S(metal)  DE(clash)   DE(tors)     intcor
     46.19     -45.28       0.99       0.00       0.00       0.09       0.99       ----

> <Gold.PLP.Fitness>
46.1877

> <Gold.PLP.PLP>
-45.2805

> <Gold.PLP.part.hbond>
-2.6563

> <Gold.PLP.part.metal>
0.0000

> <Gold.PLP.part.buried>
0.1390

> <Gold.PLP.part.nonpolar>
-44.8599

> <Gold.PLP.part.repulsive>
0.9966

> <Gold.PLP.ligand.clash>
0.0859

> <Gold.PLP.ligand.torsion>
0.9904

> <Gold.PLP.Chemscore.Hbond>
0.9913

> <Gold.PLP.Chemscore.CHOScore>
0.0000

> <Gold.PLP.Chemscore.Metal>
0.0000

> <Gold.Chemscore.Hbonds>
donor molecule, donor type, donor heavy atom, donor atom, acceptor molecule, acceptor atom, score
      L1  H    10    23       P1  2674  1.00

> <Gold.PLP.Chemscore.Internal.Correction>
   9.000000E+99

