#       Name:                CT1002167954
#       Creating user name   hitesit
#       Creation time:       Sun Apr 16 22:50:47 2023


#       File generated by GOLD software.
#

@<TRIPOS>MOLECULE
CT1002167954|ligand_prepared|mol2|1|dock5
    29    30     1
SMALL
NO_CHARGES


@<TRIPOS>ATOM
      1 C1          -9.0416  -7.3781  17.6287 C.3            1 RES1               0.0000
      2 C2          -9.1178  -8.8083  17.0564 C.ar           1 RES1               0.0000
      3 C3          -8.9391  -7.5278  19.1438 C.2            1 RES1               0.0000
      4 C4          -7.8239  -6.7251  16.9843 C.2            1 RES1               0.0000
      5 C5         -10.2783  -6.5083  17.3036 C.3            1 RES1               0.0000
      6 C6          -9.3946  -9.0185  15.7089 C.ar           1 RES1               0.0000
      7 C7          -8.9114  -9.9253  17.8616 C.ar           1 RES1               0.0000
      8 N8          -7.7287  -7.2828  19.7224 N.am           1 RES1               0.0000
      9 O9          -9.8955  -7.8935  19.8159 O.2            1 RES1               0.0000
     10 N10         -6.7683  -6.3956  17.7936 N.am           1 RES1               0.0000
     11 O11         -7.7622  -6.5080  15.7804 O.2            1 RES1               0.0000
     12 C12        -11.6013  -7.2419  17.4571 C.3            1 RES1               0.0000
     13 C13         -9.4597 -10.2988  15.1845 C.ar           1 RES1               0.0000
     14 C14         -8.9772 -11.2048  17.3353 C.ar           1 RES1               0.0000
     15 C15         -6.6531  -6.6728  19.1286 C.2            1 RES1               0.0000
     16 C16         -9.2507 -11.3926  15.9972 C.ar           1 RES1               0.0000
     17 O17         -5.6490  -6.3936  19.7774 O.2            1 RES1               0.0000
     18 H18        -10.2798  -5.6347  17.9671 H              1 RES1               0.0000
     19 H19        -10.1934  -6.1455  16.2718 H              1 RES1               0.0000
     20 H20         -9.5643  -8.1699  15.0545 H              1 RES1               0.0000
     21 H21         -8.6959  -9.8015  18.9175 H              1 RES1               0.0000
     22 H22         -7.6126  -7.5807  20.6858 H              1 RES1               0.0000
     23 H23         -5.9971  -5.8974  17.3608 H              1 RES1               0.0000
     24 H24        -12.4359  -6.5865  17.2171 H              1 RES1               0.0000
     25 H25        -11.6445  -8.1026  16.7930 H              1 RES1               0.0000
     26 H26        -11.7304  -7.5948  18.4782 H              1 RES1               0.0000
     27 H27         -9.6766 -10.4413  14.1310 H              1 RES1               0.0000
     28 H28         -8.8126 -12.0628  17.9787 H              1 RES1               0.0000
     29 H29         -9.3013 -12.3955  15.5861 H              1 RES1               0.0000
@<TRIPOS>BOND
    1    1    2 1     
    2    1    3 1     
    3    1    4 1     
    4    1    5 1     
    5    2    6 ar    
    6    2    7 ar    
    7    3    8 1     
    8    3    9 2     
    9    4   10 1     
   10    4   11 2     
   11    5   12 1     
   12    5   18 1     
   13    5   19 1     
   14    6   13 ar    
   15    6   20 1     
   16    7   14 ar    
   17    7   21 1     
   18    8   15 1     
   19    8   22 1     
   20   10   15 1     
   21   10   23 1     
   22   12   24 1     
   23   12   25 1     
   24   12   26 1     
   25   13   16 ar    
   26   13   27 1     
   27   14   16 ar    
   28   14   28 1     
   29   15   17 2     
   30   16   29 1     
@<TRIPOS>SUBSTRUCTURE
      1 RES1           1
@<TRIPOS>SET
DONOR_HYDROGENS      STATIC     ATOMS    <user>   **** ""
2 22 23
ATOM$RED        STATIC     ATOMS    COLORGROUP SYSTEM
2 22 23
@<TRIPOS>COMMENT
> <Gold.Version>
2022.3.0

> <Gold.Id.Protein>
unknown|3ovv_clean|pdb

> <Gold.Protein.RotatedTorsions>
[ 3725 3716 3715 3713 ] final  111.62 input   59.99 | X-H torsion
[ 3645 3636 3635 3633 ] final    6.91 input   60.03 | X-H torsion
[ 3915 3906 3905 3903 ] final  127.99 input   60.03 | X-H torsion
[ 3186 3179 3177 3174 ] final   35.18 input   59.97 | X-H torsion
[ 5212 5203 5202 5200 ] final   57.39 input   59.98 | X-H torsion
[ 2635 2624 2623 2622 ] final -128.84 input   60.00 | X-H torsion
[  602  597  595  592 ] final  101.93 input   59.96 | X-H torsion
[ 1943 1939 1938 1935 ] final  -23.99 input   60.01 | X-H torsion
[ 3236 3227 3226 3224 ] final  122.95 input   60.01 | X-H torsion
[  622  617  616  613 ] final  -76.55 input   59.98 | X-H torsion
[ 3133 3124 3123 3122 ] final -145.41 input   59.98 | X-H torsion
[ 3412 3403 3402 3400 ] final  -19.15 input   59.99 | X-H torsion
[ 3134 3125 3123 3122 ] final -127.46 input   60.00 | X-H torsion

> <Gold.Protein.ActiveResidues>
 LEU49   GLY50   THR51   GLY52   SER53   PHE54   VAL79   LEU82   LYS83   GLN84  
 HIS87   THR88   GLY126  GLU127  MET128  PHE129  SER130  HIS131  LEU132  ARG133 
 ARG134  ILE135  GLY136  ARG137  ARG165  ASP166  LEU167  LYS168  PRO169  GLU170 
 ASN171  LEU173  ASP184  GLY186  PHE187  TRP196  TPO197  LEU198  CYS199  GLY200 
 THR201  PRO202  GLU203  TYR204  LEU205  ILE209  ILE210  TYR215  VAL226  LEU227 
 TYR229  GLU230  ALA233  GLY234  TYR235  PRO236  PRO237  PHE238  PHE239  ALA240 
 ASP241  GLN242  PRO243  ILE244  GLN245  ILE246  TYR247  ARG256  PHE257  PRO258 
 SER259  HIS260  ASN326  PHE327  ASP328  ASP329  TYR330 

> <Gold.Protein.RotatedAtoms>
   -5.4431   -1.3399   14.1904 H   0  0  0  0  0  0  0  0  0  0  0  0  # atno 602  bound_to 597 
   -7.1551    2.5360   20.4895 H   0  0  0  0  0  0  0  0  0  0  0  0  # atno 622  bound_to 617 
  -14.1616   -7.0880    7.8000 H   0  0  0  0  0  0  0  0  0  0  0  0  # atno 1943 bound_to 1939
  -13.9328   -1.2233   18.5453 H   0  0  0  0  0  0  0  0  0  0  0  0  # atno 2635 bound_to 2624
  -15.3865   -0.4677   18.7926 H   0  0  0  0  0  0  0  0  0  0  0  0  # atno 2636 bound_to 2624
  -14.5764   -1.1452   20.0701 H   0  0  0  0  0  0  0  0  0  0  0  0  # atno 2637 bound_to 2624
  -14.4260   -0.8251   34.3345 H   0  0  0  0  0  0  0  0  0  0  0  0  # atno 3133 bound_to 3124
  -16.5571    0.3308   36.2178 H   0  0  0  0  0  0  0  0  0  0  0  0  # atno 3134 bound_to 3125
  -16.3781    0.1934   21.6469 H   0  0  0  0  0  0  0  0  0  0  0  0  # atno 3186 bound_to 3179
  -23.1391   -3.9157   16.4091 H   0  0  0  0  0  0  0  0  0  0  0  0  # atno 3236 bound_to 3227
  -18.6270    2.0456   32.1315 H   0  0  0  0  0  0  0  0  0  0  0  0  # atno 3412 bound_to 3403
  -32.0430    2.3097   11.4888 H   0  0  0  0  0  0  0  0  0  0  0  0  # atno 3645 bound_to 3636
  -32.5836    2.9277    7.2437 H   0  0  0  0  0  0  0  0  0  0  0  0  # atno 3725 bound_to 3716
  -17.6947    9.1536   22.1201 H   0  0  0  0  0  0  0  0  0  0  0  0  # atno 3915 bound_to 3906
   -8.6138   -5.6136   11.3349 H   0  0  0  0  0  0  0  0  0  0  0  0  # atno 5212 bound_to 5203
  -32.9363    2.4398    8.7552 LP  0  0  0  0  0  0  0  0  0  0  0  0  # atno 5527 bound_to 3716
  -32.7845    1.3433    7.5547 LP  0  0  0  0  0  0  0  0  0  0  0  0  # atno 5528 bound_to 3716
  -32.8298    2.9265   12.7730 LP  0  0  0  0  0  0  0  0  0  0  0  0  # atno 5529 bound_to 3636
  -33.5852    1.8766   11.7761 LP  0  0  0  0  0  0  0  0  0  0  0  0  # atno 5530 bound_to 3636
  -18.3530    7.7397   22.5850 LP  0  0  0  0  0  0  0  0  0  0  0  0  # atno 5588 bound_to 3906
  -17.8157    8.8006   23.7042 LP  0  0  0  0  0  0  0  0  0  0  0  0  # atno 5589 bound_to 3906
  -15.7303    0.7115   20.2466 LP  0  0  0  0  0  0  0  0  0  0  0  0  # atno 5590 bound_to 3179
  -16.6250   -0.6542   20.2796 LP  0  0  0  0  0  0  0  0  0  0  0  0  # atno 5591 bound_to 3179
   -8.9963   -5.0968    9.8401 LP  0  0  0  0  0  0  0  0  0  0  0  0  # atno 5600 bound_to 5203
   -8.6897   -4.0176   11.0267 LP  0  0  0  0  0  0  0  0  0  0  0  0  # atno 5601 bound_to 5203
   -6.0664   -2.7530   13.6782 LP  0  0  0  0  0  0  0  0  0  0  0  0  # atno 5606 bound_to 597 
   -4.8826   -2.0218   12.8235 LP  0  0  0  0  0  0  0  0  0  0  0  0  # atno 5607 bound_to 597 
  -13.2915   -8.3449    7.2418 LP  0  0  0  0  0  0  0  0  0  0  0  0  # atno 5610 bound_to 1939
  -13.9629   -8.4094    8.7289 LP  0  0  0  0  0  0  0  0  0  0  0  0  # atno 5611 bound_to 1939
  -22.9257   -2.5626   15.5305 LP  0  0  0  0  0  0  0  0  0  0  0  0  # atno 5640 bound_to 3227
  -24.3881   -2.8992   16.1745 LP  0  0  0  0  0  0  0  0  0  0  0  0  # atno 5641 bound_to 3227
   -7.5738    2.0852   21.9960 LP  0  0  0  0  0  0  0  0  0  0  0  0  # atno 5648 bound_to 617 
   -7.3899    0.9613   20.8257 LP  0  0  0  0  0  0  0  0  0  0  0  0  # atno 5649 bound_to 617 
  -13.0748   -0.0783   34.8484 LP  0  0  0  0  0  0  0  0  0  0  0  0  # atno 5673 bound_to 3124
  -13.8484    0.4549   33.5128 LP  0  0  0  0  0  0  0  0  0  0  0  0  # atno 5674 bound_to 3124
  -19.0043    0.5819   31.5292 LP  0  0  0  0  0  0  0  0  0  0  0  0  # atno 5675 bound_to 3403
  -18.5256    0.7298   33.0834 LP  0  0  0  0  0  0  0  0  0  0  0  0  # atno 5676 bound_to 3403

> <Gold.Score>
     Fitness  S(hb_ext) S(vdw_ext)  S(hb_int)    S(int)      intcor
     44.02       0.00      34.47       0.00      -3.38      -0.77

> <Gold.Goldscore.Fitness>
44.0167

> <Gold.Goldscore.Internal.Vdw>
-3.3159

> <Gold.Goldscore.Internal.Torsion>
-0.8287

> <Gold.Goldscore.External.Vdw>
34.4674

> <Gold.Goldscore.Internal.HBond>
0.0000

> <Gold.Goldscore.External.HBond>
0.0000

> <Gold.Goldscore.Internal.Correction>
-0.7686

> <Gold.Goldscore.Internal.Vdw.Weighted>
-3.3159

> <Gold.Goldscore.Internal.Torsion.Weighted>
-0.8287

> <Gold.Goldscore.External.Vdw.Weighted>
47.3926

> <Gold.Goldscore.Internal.HBond.Weighted>
0.0000

> <Gold.Goldscore.External.HBond.Weighted>
0.0000

> <Gold.Goldscore.Internal.Correction.Weighted>
-0.7686

> <Gold.Rescore>
     Score     S(PLP)   S(hbond)     S(cho)   S(metal)  DE(clash)   DE(tors)     intcor
     48.00     -46.89       0.98       0.00       0.00       0.00       0.91       ----

> <Gold.PLP.Fitness>
47.9959

> <Gold.PLP.PLP>
-46.8872

> <Gold.PLP.part.hbond>
-1.0000

> <Gold.PLP.part.metal>
0.0000

> <Gold.PLP.part.buried>
-2.2646

> <Gold.PLP.part.nonpolar>
-45.2251

> <Gold.PLP.part.repulsive>
0.5103

> <Gold.PLP.ligand.clash>
0.0000

> <Gold.PLP.ligand.torsion>
0.9097

> <Gold.PLP.Chemscore.Hbond>
0.9760

> <Gold.PLP.Chemscore.CHOScore>
0.0000

> <Gold.PLP.Chemscore.Metal>
0.0000

> <Gold.PLP.Chemscore.Internal.Correction>
   9.000000E+99

