#       Name:                CT1002167954
#       Creating user name   hitesit
#       Creation time:       Sun Apr 16 22:53:05 2023


#       File generated by GOLD software.
#

@<TRIPOS>MOLECULE
CT1002167954|ligand_prepared|mol2|1|dock8
    29    30     1
SMALL
NO_CHARGES


@<TRIPOS>ATOM
      1 C1         207.6537  26.1927  71.3683 C.3            1 RES1               0.0000
      2 C2         206.8440  27.3958  70.8433 C.ar           1 RES1               0.0000
      3 C3         208.2582  26.6309  72.6990 C.2            1 RES1               0.0000
      4 C4         206.6695  25.0338  71.4837 C.2            1 RES1               0.0000
      5 C5         208.8007  25.7536  70.4286 C.3            1 RES1               0.0000
      6 C6         207.0145  27.8497  69.5388 C.ar           1 RES1               0.0000
      7 C7         205.9226  28.0592  71.6493 C.ar           1 RES1               0.0000
      8 N8         207.7134  26.1189  73.8396 N.am           1 RES1               0.0000
      9 O9         209.1730  27.4438  72.7484 O.2            1 RES1               0.0000
     10 N10        206.3918  24.5495  72.7351 N.am           1 RES1               0.0000
     11 O11        206.1195  24.5468  70.5036 O.2            1 RES1               0.0000
     12 C12        209.6997  24.6787  71.0191 C.3            1 RES1               0.0000
     13 C13        206.2881  28.9258  69.0566 C.ar           1 RES1               0.0000
     14 C14        205.1974  29.1353  71.1651 C.ar           1 RES1               0.0000
     15 C15        206.8456  25.0597  73.9208 C.2            1 RES1               0.0000
     16 C16        205.3788  29.5690  69.8691 C.ar           1 RES1               0.0000
     17 O17        206.5078  24.6031  75.0092 O.2            1 RES1               0.0000
     18 H18        208.3670  25.3770  69.4941 H              1 RES1               0.0000
     19 H19        209.4127  26.6308  70.1846 H              1 RES1               0.0000
     20 H20        207.7272  27.3576  68.8855 H              1 RES1               0.0000
     21 H21        205.7641  27.7360  72.6726 H              1 RES1               0.0000
     22 H22        207.9754  26.5649  74.7130 H              1 RES1               0.0000
     23 H23        205.7911  23.7329  72.7875 H              1 RES1               0.0000
     24 H24        210.4873  24.4073  70.3193 H              1 RES1               0.0000
     25 H25        210.1676  25.0286  71.9369 H              1 RES1               0.0000
     26 H26        209.1281  23.7822  71.2505 H              1 RES1               0.0000
     27 H27        206.4355  29.2641  68.0362 H              1 RES1               0.0000
     28 H28        204.4833  29.6389  71.8083 H              1 RES1               0.0000
     29 H29        204.8096  30.4118  69.4909 H              1 RES1               0.0000
@<TRIPOS>BOND
    1    1    2 1     
    2    1    3 1     
    3    1    4 1     
    4    1    5 1     
    5    2    6 ar    
    6    2    7 ar    
    7    3    8 1     
    8    3    9 2     
    9    4   10 1     
   10    4   11 2     
   11    5   12 1     
   12    5   18 1     
   13    5   19 1     
   14    6   13 ar    
   15    6   20 1     
   16    7   14 ar    
   17    7   21 1     
   18    8   15 1     
   19    8   22 1     
   20   10   15 1     
   21   10   23 1     
   22   12   24 1     
   23   12   25 1     
   24   12   26 1     
   25   13   16 ar    
   26   13   27 1     
   27   14   16 ar    
   28   14   28 1     
   29   15   17 2     
   30   16   29 1     
@<TRIPOS>SUBSTRUCTURE
      1 RES1           1
@<TRIPOS>SET
DONOR_HYDROGENS      STATIC     ATOMS    <user>   **** ""
2 22 23
ATOM$RED        STATIC     ATOMS    COLORGROUP SYSTEM
2 22 23
@<TRIPOS>COMMENT
> <Gold.Version>
2022.3.0

> <Gold.Id.Protein>
unknown|4v3u_clean|pdb

> <Gold.Protein.RotatedTorsions>
[  563  526  525  524 ] final  151.48 input   59.98 | X-H torsion
[  717  667  668  669 ] final   85.84 input  100.61 | X-H torsion
[ 26073 26019 26018 26016 ] final   36.46 input   60.01 | X-H torsion
[ 27142 27085 27084 27080 ] final -138.10 input   60.01 | X-H torsion
[  795  758  759  760 ] final -153.07 input  102.90 | X-H torsion
[ 18483 18438 18437 18435 ] final -133.68 input   59.97 | X-H torsion
[ 18292 18264 18263 18260 ] final -142.26 input   59.98 | X-H torsion
[ 10113 10080 10079 10076 ] final   45.99 input   60.03 | X-H torsion
[ 16984 16930 16929 16927 ] final   87.04 input   60.03 | X-H torsion
[ 11433 11400 11399 11396 ] final  -56.59 input   59.99 | X-H torsion
[ 27144 27087 27086 27084 ] final   43.38 input   60.02 | X-H torsion
[ 27201  670  669  668 ] final   43.59 input    0.00 | X-H torsion

> <Gold.Protein.ActiveResidues>
 LYS309  TRP311  GLU312  MET341  HIS342  TRP414  ALA417  ARG419  CYS420  VAL421 
 GLY422  ARG423  SER462  ALA463  SER482  GLN483  LEU484  ILE485  ARG486  ALA502 
 TRP566  TYR567  LEU569  PRO570  ALA571  VAL572  SER573  ASN574  MET575  PHE589 
 SER590  GLY591  TRP592  TYR593  MET594  GLU597  ILE598  ARG601  ASP602  ASP605 
 ARG608  TRP683  HIS697  GLU699  TYR711  HEM750  H4B760 

> <Gold.Protein.RotatedAtoms>
  215.8387   11.3018   67.8669 H   0  0  0  0  0  0  0  0  0  0  0  0  # atno 563  bound_to 526 
  216.6205   10.1383   66.9819 H   0  0  0  0  0  0  0  0  0  0  0  0  # atno 564  bound_to 526 
  216.4065   11.6567   66.3510 H   0  0  0  0  0  0  0  0  0  0  0  0  # atno 565  bound_to 526 
  208.7305   10.2972   65.4083 H   0  0  0  0  0  0  0  0  0  0  0  0  # atno 717  bound_to 667 
  208.1859   10.7944   68.1766 H   0  0  0  0  0  0  0  0  0  0  0  0  # atno 795  bound_to 758 
  204.9697   38.9994   69.8432 H   0  0  0  0  0  0  0  0  0  0  0  0  # atno 10113 bound_to 10080
  215.6501   22.8884   75.5956 H   0  0  0  0  0  0  0  0  0  0  0  0  # atno 11433 bound_to 11400
  207.2059   24.9392   77.1448 H   0  0  0  0  0  0  0  0  0  0  0  0  # atno 16984 bound_to 16930
  210.4377   36.7088   74.5126 H   0  0  0  0  0  0  0  0  0  0  0  0  # atno 18292 bound_to 18264
  205.5886   26.3347   76.9029 H   0  0  0  0  0  0  0  0  0  0  0  0  # atno 18483 bound_to 18438
  212.0073   23.5853   63.7047 H   0  0  0  0  0  0  0  0  0  0  0  0  # atno 26073 bound_to 26019
  206.6661   14.1571   64.2260 H   0  0  0  0  0  0  0  0  0  0  0  0  # atno 27142 bound_to 27085
  208.0675   16.0587   60.8508 H   0  0  0  0  0  0  0  0  0  0  0  0  # atno 27144 bound_to 27087
  210.1527    9.3047   65.6302 LP  0  0  0  0  0  0  0  0  0  0  0  0  # atno 27200 bound_to 667 
  210.2517   11.9696   69.4609 LP  0  0  0  0  0  0  0  0  0  0  0  0  # atno 27201 bound_to 670 
  210.0720   10.4091   70.1906 LP  0  0  0  0  0  0  0  0  0  0  0  0  # atno 27202 bound_to 670 
  212.0933   21.9859   63.4164 LP  0  0  0  0  0  0  0  0  0  0  0  0  # atno 27208 bound_to 26019
  212.0613   23.0423   62.1715 LP  0  0  0  0  0  0  0  0  0  0  0  0  # atno 27209 bound_to 26019
  205.3422   14.1219   63.2804 LP  0  0  0  0  0  0  0  0  0  0  0  0  # atno 27212 bound_to 27085
  205.4802   15.2476   64.4553 LP  0  0  0  0  0  0  0  0  0  0  0  0  # atno 27213 bound_to 27085
  208.8794    9.2431   67.7585 LP  0  0  0  0  0  0  0  0  0  0  0  0  # atno 27214 bound_to 758 
  206.5644   27.2439   75.9706 LP  0  0  0  0  0  0  0  0  0  0  0  0  # atno 27251 bound_to 18438
  205.8782   25.8920   75.3640 LP  0  0  0  0  0  0  0  0  0  0  0  0  # atno 27252 bound_to 18438
  208.8907   36.8414   74.0253 LP  0  0  0  0  0  0  0  0  0  0  0  0  # atno 27253 bound_to 18264
  210.1045   36.9549   72.9389 LP  0  0  0  0  0  0  0  0  0  0  0  0  # atno 27254 bound_to 18264
  205.8898   37.8350   69.1755 LP  0  0  0  0  0  0  0  0  0  0  0  0  # atno 27255 bound_to 10080
  205.1786   38.9603   68.2298 LP  0  0  0  0  0  0  0  0  0  0  0  0  # atno 27256 bound_to 10080
  208.5794   24.6509   77.9683 LP  0  0  0  0  0  0  0  0  0  0  0  0  # atno 27261 bound_to 16930
  208.5099   25.8802   76.8955 LP  0  0  0  0  0  0  0  0  0  0  0  0  # atno 27262 bound_to 16930
  214.6328   22.0157   74.6728 LP  0  0  0  0  0  0  0  0  0  0  0  0  # atno 27269 bound_to 11400
  214.2497   23.5467   75.0923 LP  0  0  0  0  0  0  0  0  0  0  0  0  # atno 27270 bound_to 11400

> <Gold.Score>
     Fitness  S(hb_ext) S(vdw_ext)  S(hb_int)    S(int)      intcor
     41.38       0.25      30.44       0.00      -0.72      -0.76

> <Gold.Goldscore.Fitness>
41.3789

> <Gold.Goldscore.Internal.Vdw>
-1.0352

> <Gold.Goldscore.Internal.Torsion>
-0.4463

> <Gold.Goldscore.External.Vdw>
30.4375

> <Gold.Goldscore.Internal.HBond>
0.0000

> <Gold.Goldscore.External.HBond>
0.2503

> <Gold.Goldscore.Internal.Correction>
-0.7585

> <Gold.Goldscore.Hbonds>
donor molecule, donor type, donor heavy atom, donor atom, acceptor molecule, acceptor atom, score
      P1  H 11446 11497       L1    17  0.05
      P1  H 16930 16984       L1    17  0.06
      L1  H     8    22       P1 11447  0.01

> <Gold.Goldscore.Internal.Vdw.Weighted>
-1.0352

> <Gold.Goldscore.Internal.Torsion.Weighted>
-0.4463

> <Gold.Goldscore.External.Vdw.Weighted>
41.8516

> <Gold.Goldscore.Internal.HBond.Weighted>
0.0000

> <Gold.Goldscore.External.HBond.Weighted>
0.2503

> <Gold.Goldscore.Internal.Correction.Weighted>
-0.7585

> <Gold.Rescore>
     Score     S(PLP)   S(hbond)     S(cho)   S(metal)  DE(clash)   DE(tors)     intcor
    -12.43      12.78       0.38       0.00       0.00       0.00       0.39       ----

> <Gold.PLP.Fitness>
-12.4331

> <Gold.PLP.PLP>
12.7787

> <Gold.PLP.part.hbond>
0.0143

> <Gold.PLP.part.metal>
0.0000

> <Gold.PLP.part.buried>
37.5377

> <Gold.PLP.part.nonpolar>
-31.8927

> <Gold.PLP.part.repulsive>
8.2554

> <Gold.PLP.ligand.clash>
0.0000

> <Gold.PLP.ligand.torsion>
0.3919

> <Gold.PLP.Chemscore.Hbond>
0.3765

> <Gold.PLP.Chemscore.CHOScore>
0.0000

> <Gold.PLP.Chemscore.Metal>
0.0000

> <Gold.Chemscore.Hbonds>
donor molecule, donor type, donor heavy atom, donor atom, acceptor molecule, acceptor atom, score
      L1  H     8    22       P1 11447  0.43
      P1  H 16930 16984       L1    17  0.41

> <Gold.PLP.Chemscore.Internal.Correction>
   9.000000E+99

#       Name:                CT1002167954
#       Creating user name   hitesit
#       Creation time:       Sun Apr 16 22:52:59 2023


#       File generated by GOLD software.
#

@<TRIPOS>MOLECULE
CT1002167954|ligand_prepared|mol2|1|dock1
    29    30     1
SMALL
NO_CHARGES


@<TRIPOS>ATOM
      1 C1         208.9828  25.5683  69.9890 C.3            1 RES1               0.0000
      2 C2         208.4157  26.9654  69.6645 C.ar           1 RES1               0.0000
      3 C3         209.5885  25.0399  68.6920 C.2            1 RES1               0.0000
      4 C4         209.9946  25.7688  71.1118 C.2            1 RES1               0.0000
      5 C5         207.9177  24.5603  70.4800 C.3            1 RES1               0.0000
      6 C6         207.4382  27.5385  70.4724 C.ar           1 RES1               0.0000
      7 C7         208.8613  27.6930  68.5643 C.ar           1 RES1               0.0000
      8 N8         210.9486  25.0154  68.5939 N.am           1 RES1               0.0000
      9 O9         208.8835  24.6873  67.7546 O.2            1 RES1               0.0000
     10 N10        211.3136  25.5147  70.8405 N.am           1 RES1               0.0000
     11 O11        209.6637  26.1604  72.2242 O.2            1 RES1               0.0000
     12 C12        208.4285  23.1320  70.5869 C.3            1 RES1               0.0000
     13 C13        206.9268  28.7948  70.1924 C.ar           1 RES1               0.0000
     14 C14        208.3483  28.9492  68.2859 C.ar           1 RES1               0.0000
     15 C15        211.8403  25.1767  69.6237 C.2            1 RES1               0.0000
     16 C16        207.3817  29.5011  69.0993 C.ar           1 RES1               0.0000
     17 O17        213.0445  25.0178  69.4459 O.2            1 RES1               0.0000
     18 H18        207.5560  24.8805  71.4649 H              1 RES1               0.0000
     19 H19        207.0670  24.5801  69.7877 H              1 RES1               0.0000
     20 H20        207.0662  26.9966  71.3356 H              1 RES1               0.0000
     21 H21        209.6204  27.2782  67.9098 H              1 RES1               0.0000
     22 H22        211.3387  24.8630  67.6693 H              1 RES1               0.0000
     23 H23        211.9629  25.5839  71.6176 H              1 RES1               0.0000
     24 H24        207.6418  22.4661  70.9354 H              1 RES1               0.0000
     25 H25        208.7731  22.7722  69.6196 H              1 RES1               0.0000
     26 H26        209.2592  23.0708  71.2869 H              1 RES1               0.0000
     27 H27        206.1652  29.2242  70.8349 H              1 RES1               0.0000
     28 H28        208.7089  29.5012  67.4242 H              1 RES1               0.0000
     29 H29        206.9812  30.4854  68.8803 H              1 RES1               0.0000
@<TRIPOS>BOND
    1    1    2 1     
    2    1    3 1     
    3    1    4 1     
    4    1    5 1     
    5    2    6 ar    
    6    2    7 ar    
    7    3    8 1     
    8    3    9 2     
    9    4   10 1     
   10    4   11 2     
   11    5   12 1     
   12    5   18 1     
   13    5   19 1     
   14    6   13 ar    
   15    6   20 1     
   16    7   14 ar    
   17    7   21 1     
   18    8   15 1     
   19    8   22 1     
   20   10   15 1     
   21   10   23 1     
   22   12   24 1     
   23   12   25 1     
   24   12   26 1     
   25   13   16 ar    
   26   13   27 1     
   27   14   16 ar    
   28   14   28 1     
   29   15   17 2     
   30   16   29 1     
@<TRIPOS>SUBSTRUCTURE
      1 RES1           1
@<TRIPOS>SET
DONOR_HYDROGENS      STATIC     ATOMS    <user>   **** ""
2 22 23
ATOM$RED        STATIC     ATOMS    COLORGROUP SYSTEM
2 22 23
@<TRIPOS>COMMENT
> <Gold.Version>
2022.3.0

> <Gold.Id.Protein>
unknown|4v3u_clean|pdb

> <Gold.Protein.RotatedTorsions>
[  563  526  525  524 ] final   90.71 input   59.98 | X-H torsion
[  717  667  668  669 ] final  -33.36 input  100.61 | X-H torsion
[ 26073 26019 26018 26016 ] final -139.25 input   60.01 | X-H torsion
[ 27142 27085 27084 27080 ] final   65.21 input   60.01 | X-H torsion
[  795  758  759  760 ] final -166.08 input  102.90 | X-H torsion
[ 18483 18438 18437 18435 ] final   29.80 input   59.97 | X-H torsion
[ 18292 18264 18263 18260 ] final  129.75 input   59.98 | X-H torsion
[ 10113 10080 10079 10076 ] final  -54.05 input   60.03 | X-H torsion
[ 16984 16930 16929 16927 ] final  170.64 input   60.03 | X-H torsion
[ 11433 11400 11399 11396 ] final  158.82 input   59.99 | X-H torsion
[ 27144 27087 27086 27084 ] final  144.65 input   60.02 | X-H torsion
[ 27201  670  669  668 ] final  -93.95 input    0.00 | X-H torsion

> <Gold.Protein.ActiveResidues>
 LYS309  TRP311  GLU312  MET341  HIS342  TRP414  ALA417  ARG419  CYS420  VAL421 
 GLY422  ARG423  SER462  ALA463  SER482  GLN483  LEU484  ILE485  ARG486  ALA502 
 TRP566  TYR567  LEU569  PRO570  ALA571  VAL572  SER573  ASN574  MET575  PHE589 
 SER590  GLY591  TRP592  TYR593  MET594  GLU597  ILE598  ARG601  ASP602  ASP605 
 ARG608  TRP683  HIS697  GLU699  TYR711  HEM750  H4B760 

> <Gold.Protein.RotatedAtoms>
  215.9612   11.9285   67.1391 H   0  0  0  0  0  0  0  0  0  0  0  0  # atno 563  bound_to 526 
  216.1644   10.4172   67.7893 H   0  0  0  0  0  0  0  0  0  0  0  0  # atno 564  bound_to 526 
  216.7402   10.7515   66.2708 H   0  0  0  0  0  0  0  0  0  0  0  0  # atno 565  bound_to 526 
  209.4149    9.1067   66.0769 H   0  0  0  0  0  0  0  0  0  0  0  0  # atno 717  bound_to 667 
  208.0268   10.7251   68.0746 H   0  0  0  0  0  0  0  0  0  0  0  0  # atno 795  bound_to 758 
  205.8134   37.8950   69.4865 H   0  0  0  0  0  0  0  0  0  0  0  0  # atno 10113 bound_to 10080
  214.3195   22.2515   74.5928 H   0  0  0  0  0  0  0  0  0  0  0  0  # atno 11433 bound_to 11400
  207.9570   25.8333   76.7044 H   0  0  0  0  0  0  0  0  0  0  0  0  # atno 16984 bound_to 16930
  209.1387   36.7635   74.4735 H   0  0  0  0  0  0  0  0  0  0  0  0  # atno 18292 bound_to 18264
  206.2988   26.4197   75.1937 H   0  0  0  0  0  0  0  0  0  0  0  0  # atno 18483 bound_to 18438
  212.1045   22.1171   62.5483 H   0  0  0  0  0  0  0  0  0  0  0  0  # atno 26073 bound_to 26019
  205.0351   14.5769   63.5005 H   0  0  0  0  0  0  0  0  0  0  0  0  # atno 27142 bound_to 27085
  207.5885   15.1870   59.7991 H   0  0  0  0  0  0  0  0  0  0  0  0  # atno 27144 bound_to 27087
  209.4857   10.4652   64.9785 LP  0  0  0  0  0  0  0  0  0  0  0  0  # atno 27200 bound_to 667 
  210.6211   10.4580   69.8915 LP  0  0  0  0  0  0  0  0  0  0  0  0  # atno 27201 bound_to 670 
  209.7026   11.9206   69.7600 LP  0  0  0  0  0  0  0  0  0  0  0  0  # atno 27202 bound_to 670 
  212.0156   23.7335   62.7159 LP  0  0  0  0  0  0  0  0  0  0  0  0  # atno 27208 bound_to 26019
  212.0413   22.7731   64.0364 LP  0  0  0  0  0  0  0  0  0  0  0  0  # atno 27209 bound_to 26019
  206.0081   15.1118   64.6900 LP  0  0  0  0  0  0  0  0  0  0  0  0  # atno 27212 bound_to 27085
  206.4569   13.8351   63.7762 LP  0  0  0  0  0  0  0  0  0  0  0  0  # atno 27213 bound_to 27085
  209.0336    9.3103   67.8575 LP  0  0  0  0  0  0  0  0  0  0  0  0  # atno 27214 bound_to 758 
  205.4306   25.8385   76.4412 LP  0  0  0  0  0  0  0  0  0  0  0  0  # atno 27251 bound_to 18438
  206.2966   27.2119   76.6151 LP  0  0  0  0  0  0  0  0  0  0  0  0  # atno 27252 bound_to 18438
  209.5853   36.9767   72.9232 LP  0  0  0  0  0  0  0  0  0  0  0  0  # atno 27253 bound_to 18264
  210.7178   36.7645   74.0804 LP  0  0  0  0  0  0  0  0  0  0  0  0  # atno 27254 bound_to 18264
  205.3708   38.7088   68.1485 LP  0  0  0  0  0  0  0  0  0  0  0  0  # atno 27255 bound_to 10080
  204.8480   39.1987   69.6159 LP  0  0  0  0  0  0  0  0  0  0  0  0  # atno 27256 bound_to 10080
  207.3989   24.5579   77.5469 LP  0  0  0  0  0  0  0  0  0  0  0  0  # atno 27261 bound_to 16930
  208.9338   25.0728   77.7605 LP  0  0  0  0  0  0  0  0  0  0  0  0  # atno 27262 bound_to 16930
  214.5491   23.6900   75.3179 LP  0  0  0  0  0  0  0  0  0  0  0  0  # atno 27269 bound_to 11400
  215.6732   22.5137   75.4570 LP  0  0  0  0  0  0  0  0  0  0  0  0  # atno 27270 bound_to 11400

> <Gold.Score>
     Fitness  S(hb_ext) S(vdw_ext)  S(hb_int)    S(int)      intcor
     39.39       6.00      25.03       0.00      -1.02      -0.76

> <Gold.Goldscore.Fitness>
39.3916

> <Gold.Goldscore.Internal.Vdw>
-1.2788

> <Gold.Goldscore.Internal.Torsion>
-0.5077

> <Gold.Goldscore.External.Vdw>
25.0307

> <Gold.Goldscore.Internal.HBond>
0.0000

> <Gold.Goldscore.External.HBond>
5.9959

> <Gold.Goldscore.Internal.Correction>
-0.7650

> <Gold.Goldscore.Hbonds>
donor molecule, donor type, donor heavy atom, donor atom, acceptor molecule, acceptor atom, score
      L1  H     8    22       P1 26790  1.00

> <Gold.Goldscore.Internal.Vdw.Weighted>
-1.2788

> <Gold.Goldscore.Internal.Torsion.Weighted>
-0.5077

> <Gold.Goldscore.External.Vdw.Weighted>
34.4173

> <Gold.Goldscore.Internal.HBond.Weighted>
0.0000

> <Gold.Goldscore.External.HBond.Weighted>
5.9959

> <Gold.Goldscore.Internal.Correction.Weighted>
-0.7650

> <Gold.Rescore>
     Score     S(PLP)   S(hbond)     S(cho)   S(metal)  DE(clash)   DE(tors)     intcor
     19.61     -18.47       0.93       0.00       0.00       0.49       0.57       ----

> <Gold.PLP.Fitness>
19.6051

> <Gold.PLP.PLP>
-18.4667

> <Gold.PLP.part.hbond>
-2.0000

> <Gold.PLP.part.metal>
0.0000

> <Gold.PLP.part.buried>
5.0907

> <Gold.PLP.part.nonpolar>
-30.4003

> <Gold.PLP.part.repulsive>
7.2875

> <Gold.PLP.ligand.clash>
0.4944

> <Gold.PLP.ligand.torsion>
0.5730

> <Gold.PLP.Chemscore.Hbond>
0.9263

> <Gold.PLP.Chemscore.CHOScore>
0.0000

> <Gold.PLP.Chemscore.Metal>
0.0000

> <Gold.Chemscore.Hbonds>
donor molecule, donor type, donor heavy atom, donor atom, acceptor molecule, acceptor atom, score
      L1  H     8    22       P1 26790  1.00

> <Gold.PLP.Chemscore.Internal.Correction>
   9.000000E+99

#       Name:                CT1002167954
#       Creating user name   hitesit
#       Creation time:       Sun Apr 16 22:53:00 2023


#       File generated by GOLD software.
#

@<TRIPOS>MOLECULE
CT1002167954|ligand_prepared|mol2|1|dock2
    29    30     1
SMALL
NO_CHARGES


@<TRIPOS>ATOM
      1 C1         207.5461  26.5708  71.5850 C.3            1 RES1               0.0000
      2 C2         206.7476  25.2526  71.6449 C.ar           1 RES1               0.0000
      3 C3         208.4812  26.4512  70.3852 C.2            1 RES1               0.0000
      4 C4         206.5161  27.6882  71.4620 C.2            1 RES1               0.0000
      5 C5         208.3980  26.8432  72.8466 C.3            1 RES1               0.0000
      6 C6         206.6152  24.4524  70.5141 C.ar           1 RES1               0.0000
      7 C7         206.1412  24.8231  72.8223 C.ar           1 RES1               0.0000
      8 N8         208.1739  27.1736  69.2701 N.am           1 RES1               0.0000
      9 O9         209.4516  25.7039  70.4034 O.2            1 RES1               0.0000
     10 N10        206.4956  28.4178  70.3022 N.am           1 RES1               0.0000
     11 O11        205.7111  27.9327  72.3522 O.2            1 RES1               0.0000
     12 C12        209.3027  28.0593  72.7248 C.3            1 RES1               0.0000
     13 C13        205.9048  23.2643  70.5593 C.ar           1 RES1               0.0000
     14 C14        205.4310  23.6347  72.8653 C.ar           1 RES1               0.0000
     15 C15        207.2575  28.1911  69.1885 C.2            1 RES1               0.0000
     16 C16        205.3127  22.8544  71.7349 C.ar           1 RES1               0.0000
     17 O17        207.1435  28.8563  68.1630 O.2            1 RES1               0.0000
     18 H18        207.7264  26.9870  73.7019 H              1 RES1               0.0000
     19 H19        209.0176  25.9614  73.0514 H              1 RES1               0.0000
     20 H20        207.0722  24.7598  69.5794 H              1 RES1               0.0000
     21 H21        206.2202  25.4213  73.7237 H              1 RES1               0.0000
     22 H22        208.6714  26.9353  68.4181 H              1 RES1               0.0000
     23 H23        205.8530  29.2026  70.2657 H              1 RES1               0.0000
     24 H24        209.8779  28.2050  73.6367 H              1 RES1               0.0000
     25 H25        210.0010  27.9394  71.8991 H              1 RES1               0.0000
     26 H26        208.7175  28.9589  72.5458 H              1 RES1               0.0000
     27 H27        205.8135  22.6545  69.6665 H              1 RES1               0.0000
     28 H28        204.9661  23.3163  73.7925 H              1 RES1               0.0000
     29 H29        204.7566  21.9234  71.7702 H              1 RES1               0.0000
@<TRIPOS>BOND
    1    1    2 1     
    2    1    3 1     
    3    1    4 1     
    4    1    5 1     
    5    2    6 ar    
    6    2    7 ar    
    7    3    8 1     
    8    3    9 2     
    9    4   10 1     
   10    4   11 2     
   11    5   12 1     
   12    5   18 1     
   13    5   19 1     
   14    6   13 ar    
   15    6   20 1     
   16    7   14 ar    
   17    7   21 1     
   18    8   15 1     
   19    8   22 1     
   20   10   15 1     
   21   10   23 1     
   22   12   24 1     
   23   12   25 1     
   24   12   26 1     
   25   13   16 ar    
   26   13   27 1     
   27   14   16 ar    
   28   14   28 1     
   29   15   17 2     
   30   16   29 1     
@<TRIPOS>SUBSTRUCTURE
      1 RES1           1
@<TRIPOS>SET
DONOR_HYDROGENS      STATIC     ATOMS    <user>   **** ""
2 22 23
ATOM$RED        STATIC     ATOMS    COLORGROUP SYSTEM
2 22 23
@<TRIPOS>COMMENT
> <Gold.Version>
2022.3.0

> <Gold.Id.Protein>
unknown|4v3u_clean|pdb

> <Gold.Protein.RotatedTorsions>
[  563  526  525  524 ] final  -70.16 input   59.98 | X-H torsion
[  717  667  668  669 ] final   52.34 input  100.61 | X-H torsion
[ 26073 26019 26018 26016 ] final   46.87 input   60.01 | X-H torsion
[ 27142 27085 27084 27080 ] final -125.02 input   60.01 | X-H torsion
[  795  758  759  760 ] final   89.64 input  102.90 | X-H torsion
[ 18483 18438 18437 18435 ] final -127.50 input   59.97 | X-H torsion
[ 18292 18264 18263 18260 ] final  120.08 input   59.98 | X-H torsion
[ 10113 10080 10079 10076 ] final -104.51 input   60.03 | X-H torsion
[ 16984 16930 16929 16927 ] final -126.77 input   60.03 | X-H torsion
[ 11433 11400 11399 11396 ] final -171.99 input   59.99 | X-H torsion
[ 27144 27087 27086 27084 ] final  152.92 input   60.02 | X-H torsion
[ 27201  670  669  668 ] final -179.34 input    0.00 | X-H torsion

> <Gold.Protein.ActiveResidues>
 LYS309  TRP311  GLU312  MET341  HIS342  TRP414  ALA417  ARG419  CYS420  VAL421 
 GLY422  ARG423  SER462  ALA463  SER482  GLN483  LEU484  ILE485  ARG486  ALA502 
 TRP566  TYR567  LEU569  PRO570  ALA571  VAL572  SER573  ASN574  MET575  PHE589 
 SER590  GLY591  TRP592  TYR593  MET594  GLU597  ILE598  ARG601  ASP602  ASP605 
 ARG608  TRP683  HIS697  GLU699  TYR711  HEM750  H4B760 

> <Gold.Protein.RotatedAtoms>
  216.7069   10.2484   66.7105 H   0  0  0  0  0  0  0  0  0  0  0  0  # atno 563  bound_to 526 
  216.2584   11.8361   66.5478 H   0  0  0  0  0  0  0  0  0  0  0  0  # atno 564  bound_to 526 
  215.9009   11.0115   67.9411 H   0  0  0  0  0  0  0  0  0  0  0  0  # atno 565  bound_to 526 
  208.6044    9.9319   65.7416 H   0  0  0  0  0  0  0  0  0  0  0  0  # atno 717  bound_to 667 
  208.0313    9.4467   67.4958 H   0  0  0  0  0  0  0  0  0  0  0  0  # atno 795  bound_to 758 
  205.8748   37.9346   68.6917 H   0  0  0  0  0  0  0  0  0  0  0  0  # atno 10113 bound_to 10080
  214.7008   21.9945   74.6986 H   0  0  0  0  0  0  0  0  0  0  0  0  # atno 11433 bound_to 11400
  208.8130   25.7306   77.1544 H   0  0  0  0  0  0  0  0  0  0  0  0  # atno 16984 bound_to 16930
  209.0392   36.7849   74.3529 H   0  0  0  0  0  0  0  0  0  0  0  0  # atno 18292 bound_to 18264
  205.5487   26.2522   76.8606 H   0  0  0  0  0  0  0  0  0  0  0  0  # atno 18483 bound_to 18438
  212.0048   23.6831   63.5657 H   0  0  0  0  0  0  0  0  0  0  0  0  # atno 26073 bound_to 26019
  206.6624   14.3123   64.3721 H   0  0  0  0  0  0  0  0  0  0  0  0  # atno 27142 bound_to 27085
  207.4734   15.2036   59.7306 H   0  0  0  0  0  0  0  0  0  0  0  0  # atno 27144 bound_to 27087
  210.2757    9.6608   65.3053 LP  0  0  0  0  0  0  0  0  0  0  0  0  # atno 27200 bound_to 667 
  209.5658   10.7751   70.2982 LP  0  0  0  0  0  0  0  0  0  0  0  0  # atno 27201 bound_to 670 
  210.7579   11.6035   69.3533 LP  0  0  0  0  0  0  0  0  0  0  0  0  # atno 27202 bound_to 670 
  212.0868   22.0577   63.5716 LP  0  0  0  0  0  0  0  0  0  0  0  0  # atno 27208 bound_to 26019
  212.0704   22.8720   62.1563 LP  0  0  0  0  0  0  0  0  0  0  0  0  # atno 27209 bound_to 26019
  205.5104   13.9890   63.2692 LP  0  0  0  0  0  0  0  0  0  0  0  0  # atno 27212 bound_to 27085
  205.3158   15.2244   64.3192 LP  0  0  0  0  0  0  0  0  0  0  0  0  # atno 27213 bound_to 27085
  209.0293   10.5491   68.4183 LP  0  0  0  0  0  0  0  0  0  0  0  0  # atno 27214 bound_to 758 
  206.5431   27.2669   76.0674 LP  0  0  0  0  0  0  0  0  0  0  0  0  # atno 27251 bound_to 18438
  205.9397   25.9522   75.3098 LP  0  0  0  0  0  0  0  0  0  0  0  0  # atno 27252 bound_to 18438
  209.7420   36.9746   72.8975 LP  0  0  0  0  0  0  0  0  0  0  0  0  # atno 27253 bound_to 18264
  210.6612   36.7451   74.2276 LP  0  0  0  0  0  0  0  0  0  0  0  0  # atno 27254 bound_to 18264
  204.9307   39.2520   68.5452 LP  0  0  0  0  0  0  0  0  0  0  0  0  # atno 27255 bound_to 10080
  205.2262   38.6156   70.0198 LP  0  0  0  0  0  0  0  0  0  0  0  0  # atno 27256 bound_to 10080
  207.2746   25.2719   76.8882 LP  0  0  0  0  0  0  0  0  0  0  0  0  # atno 27261 bound_to 16930
  208.1962   24.4622   77.9660 LP  0  0  0  0  0  0  0  0  0  0  0  0  # atno 27262 bound_to 16930
  214.2042   23.5039   75.0493 LP  0  0  0  0  0  0  0  0  0  0  0  0  # atno 27269 bound_to 11400
  215.6341   22.9587   75.6191 LP  0  0  0  0  0  0  0  0  0  0  0  0  # atno 27270 bound_to 11400

> <Gold.Score>
     Fitness  S(hb_ext) S(vdw_ext)  S(hb_int)    S(int)      intcor
     38.84       0.00      29.10       0.00      -1.17      -0.76

> <Gold.Goldscore.Fitness>
38.8410

> <Gold.Goldscore.Internal.Vdw>
-1.4985

> <Gold.Goldscore.Internal.Torsion>
-0.4361

> <Gold.Goldscore.External.Vdw>
29.0986

> <Gold.Goldscore.Internal.HBond>
0.0000

> <Gold.Goldscore.External.HBond>
0.0000

> <Gold.Goldscore.Internal.Correction>
-0.7650

> <Gold.Goldscore.Internal.Vdw.Weighted>
-1.4985

> <Gold.Goldscore.Internal.Torsion.Weighted>
-0.4361

> <Gold.Goldscore.External.Vdw.Weighted>
40.0106

> <Gold.Goldscore.Internal.HBond.Weighted>
0.0000

> <Gold.Goldscore.External.HBond.Weighted>
0.0000

> <Gold.Goldscore.Internal.Correction.Weighted>
-0.7650

> <Gold.Rescore>
     Score     S(PLP)   S(hbond)     S(cho)   S(metal)  DE(clash)   DE(tors)     intcor
     26.09     -29.38       0.00       0.00       0.00       0.07       1.61       ----

> <Gold.PLP.Fitness>
26.0887

> <Gold.PLP.PLP>
-29.3840

> <Gold.PLP.part.hbond>
0.0000

> <Gold.PLP.part.metal>
0.0000

> <Gold.PLP.part.buried>
-6.9354

> <Gold.PLP.part.nonpolar>
-27.3273

> <Gold.PLP.part.repulsive>
3.1193

> <Gold.PLP.ligand.clash>
0.0733

> <Gold.PLP.ligand.torsion>
1.6110

> <Gold.PLP.Chemscore.Hbond>
0.0000

> <Gold.PLP.Chemscore.CHOScore>
0.0000

> <Gold.PLP.Chemscore.Metal>
0.0000

> <Gold.PLP.Chemscore.Internal.Correction>
   9.000000E+99

#       Name:                CT1002167954
#       Creating user name   hitesit
#       Creation time:       Sun Apr 16 22:53:06 2023


#       File generated by GOLD software.
#

@<TRIPOS>MOLECULE
CT1002167954|ligand_prepared|mol2|1|dock10
    29    30     1
SMALL
NO_CHARGES


@<TRIPOS>ATOM
      1 C1         207.0617  23.6761  72.5243 C.3            1 RES1               0.0000
      2 C2         207.6294  25.0789  72.8223 C.ar           1 RES1               0.0000
      3 C3         207.6691  23.2418  71.1937 C.2            1 RES1               0.0000
      4 C4         207.4568  22.7963  73.7052 C.2            1 RES1               0.0000
      5 C5         205.5209  23.6399  72.3960 C.3            1 RES1               0.0000
      6 C6         207.0851  25.8632  73.8348 C.ar           1 RES1               0.0000
      7 C7         208.6969  25.6001  72.0962 C.ar           1 RES1               0.0000
      8 N8         208.6442  22.2889  71.2253 N.am           1 RES1               0.0000
      9 O9         207.3257  23.7561  70.1363 O.2            1 RES1               0.0000
     10 N10        208.3321  21.7675  73.4749 N.am           1 RES1               0.0000
     11 O11        207.0309  22.9950  74.8363 O.2            1 RES1               0.0000
     12 C12        204.9812  22.3242  71.8577 C.3            1 RES1               0.0000
     13 C13        207.5915  27.1218  74.1135 C.ar           1 RES1               0.0000
     14 C14        209.2017  26.8592  72.3763 C.ar           1 RES1               0.0000
     15 C15        208.9676  21.4929  72.2946 C.2            1 RES1               0.0000
     16 C16        208.6503  27.6205  73.3849 C.ar           1 RES1               0.0000
     17 O17        209.7837  20.5830  72.1795 O.2            1 RES1               0.0000
     18 H18        205.0800  23.8250  73.3833 H              1 RES1               0.0000
     19 H19        205.2030  24.4511  71.7294 H              1 RES1               0.0000
     20 H20        206.2499  25.4885  74.4172 H              1 RES1               0.0000
     21 H21        209.1458  25.0195  71.2975 H              1 RES1               0.0000
     22 H22        209.1828  22.1559  70.3753 H              1 RES1               0.0000
     23 H23        208.5281  21.1491  74.2555 H              1 RES1               0.0000
     24 H24        203.8959  22.3523  71.7876 H              1 RES1               0.0000
     25 H25        205.3797  22.1207  70.8660 H              1 RES1               0.0000
     26 H26        205.2574  21.4983  72.5100 H              1 RES1               0.0000
     27 H27        207.1531  27.7176  74.9073 H              1 RES1               0.0000
     28 H28        210.0347  27.2479  71.7999 H              1 RES1               0.0000
     29 H29        209.0471  28.6064  73.6036 H              1 RES1               0.0000
@<TRIPOS>BOND
    1    1    2 1     
    2    1    3 1     
    3    1    4 1     
    4    1    5 1     
    5    2    6 ar    
    6    2    7 ar    
    7    3    8 1     
    8    3    9 2     
    9    4   10 1     
   10    4   11 2     
   11    5   12 1     
   12    5   18 1     
   13    5   19 1     
   14    6   13 ar    
   15    6   20 1     
   16    7   14 ar    
   17    7   21 1     
   18    8   15 1     
   19    8   22 1     
   20   10   15 1     
   21   10   23 1     
   22   12   24 1     
   23   12   25 1     
   24   12   26 1     
   25   13   16 ar    
   26   13   27 1     
   27   14   16 ar    
   28   14   28 1     
   29   15   17 2     
   30   16   29 1     
@<TRIPOS>SUBSTRUCTURE
      1 RES1           1
@<TRIPOS>SET
DONOR_HYDROGENS      STATIC     ATOMS    <user>   **** ""
2 22 23
ATOM$RED        STATIC     ATOMS    COLORGROUP SYSTEM
2 22 23
@<TRIPOS>COMMENT
> <Gold.Version>
2022.3.0

> <Gold.Id.Protein>
unknown|4v3u_clean|pdb

> <Gold.Protein.RotatedTorsions>
[  563  526  525  524 ] final  109.05 input   59.98 | X-H torsion
[  717  667  668  669 ] final  -80.39 input  100.61 | X-H torsion
[ 26073 26019 26018 26016 ] final   39.38 input   60.01 | X-H torsion
[ 27142 27085 27084 27080 ] final  -12.01 input   60.01 | X-H torsion
[  795  758  759  760 ] final  -39.36 input  102.90 | X-H torsion
[ 18483 18438 18437 18435 ] final  -90.08 input   59.97 | X-H torsion
[ 18292 18264 18263 18260 ] final  -31.57 input   59.98 | X-H torsion
[ 10113 10080 10079 10076 ] final   48.30 input   60.03 | X-H torsion
[ 16984 16930 16929 16927 ] final  145.25 input   60.03 | X-H torsion
[ 11433 11400 11399 11396 ] final  153.45 input   59.99 | X-H torsion
[ 27144 27087 27086 27084 ] final   65.12 input   60.02 | X-H torsion
[ 27201  670  669  668 ] final  154.45 input    0.00 | X-H torsion

> <Gold.Protein.ActiveResidues>
 LYS309  TRP311  GLU312  MET341  HIS342  TRP414  ALA417  ARG419  CYS420  VAL421 
 GLY422  ARG423  SER462  ALA463  SER482  GLN483  LEU484  ILE485  ARG486  ALA502 
 TRP566  TYR567  LEU569  PRO570  ALA571  VAL572  SER573  ASN574  MET575  PHE589 
 SER590  GLY591  TRP592  TYR593  MET594  GLU597  ILE598  ARG601  ASP602  ASP605 
 ARG608  TRP683  HIS697  GLU699  TYR711  HEM750  H4B760 

> <Gold.Protein.RotatedAtoms>
  215.8732   11.8224   67.4113 H   0  0  0  0  0  0  0  0  0  0  0  0  # atno 563  bound_to 526 
  216.3123   10.2343   67.5948 H   0  0  0  0  0  0  0  0  0  0  0  0  # atno 564  bound_to 526 
  216.6802   11.0404   66.1933 H   0  0  0  0  0  0  0  0  0  0  0  0  # atno 565  bound_to 526 
  210.0465    9.1895   65.7713 H   0  0  0  0  0  0  0  0  0  0  0  0  # atno 717  bound_to 667 
  209.3585    9.8844   68.2836 H   0  0  0  0  0  0  0  0  0  0  0  0  # atno 795  bound_to 758 
  204.9535   39.0251   69.8207 H   0  0  0  0  0  0  0  0  0  0  0  0  # atno 10113 bound_to 10080
  214.2615   22.3171   74.5877 H   0  0  0  0  0  0  0  0  0  0  0  0  # atno 11433 bound_to 11400
  207.5930   25.6414   76.7130 H   0  0  0  0  0  0  0  0  0  0  0  0  # atno 16984 bound_to 16930
  210.2425   36.9375   73.0018 H   0  0  0  0  0  0  0  0  0  0  0  0  # atno 18292 bound_to 18264
  205.4331   25.8433   76.4363 H   0  0  0  0  0  0  0  0  0  0  0  0  # atno 18483 bound_to 18438
  212.0065   23.6152   63.6676 H   0  0  0  0  0  0  0  0  0  0  0  0  # atno 26073 bound_to 26019
  205.4049   15.2379   64.3901 H   0  0  0  0  0  0  0  0  0  0  0  0  # atno 27142 bound_to 27085
  208.1607   15.7652   60.6781 H   0  0  0  0  0  0  0  0  0  0  0  0  # atno 27144 bound_to 27087
  208.8700   10.3844   65.2763 LP  0  0  0  0  0  0  0  0  0  0  0  0  # atno 27200 bound_to 667 
  209.4024   11.1270   70.2372 LP  0  0  0  0  0  0  0  0  0  0  0  0  # atno 27201 bound_to 670 
  210.9213   11.2516   69.4143 LP  0  0  0  0  0  0  0  0  0  0  0  0  # atno 27202 bound_to 670 
  212.0916   22.0032   63.4612 LP  0  0  0  0  0  0  0  0  0  0  0  0  # atno 27208 bound_to 26019
  212.0639   22.9949   62.1641 LP  0  0  0  0  0  0  0  0  0  0  0  0  # atno 27209 bound_to 26019
  206.6746   14.2241   64.2998 LP  0  0  0  0  0  0  0  0  0  0  0  0  # atno 27212 bound_to 27085
  205.4179   14.0571   63.2705 LP  0  0  0  0  0  0  0  0  0  0  0  0  # atno 27213 bound_to 27085
  207.7432   10.1250   67.6549 LP  0  0  0  0  0  0  0  0  0  0  0  0  # atno 27214 bound_to 758 
  206.2957   27.2113   76.6165 LP  0  0  0  0  0  0  0  0  0  0  0  0  # atno 27251 bound_to 18438
  206.3036   26.4197   75.1882 LP  0  0  0  0  0  0  0  0  0  0  0  0  # atno 27252 bound_to 18438
  210.3205   36.7019   74.6101 LP  0  0  0  0  0  0  0  0  0  0  0  0  # atno 27253 bound_to 18264
  208.8713   36.8642   73.8752 LP  0  0  0  0  0  0  0  0  0  0  0  0  # atno 27254 bound_to 18264
  205.8844   37.8365   69.2131 LP  0  0  0  0  0  0  0  0  0  0  0  0  # atno 27255 bound_to 10080
  205.2002   38.9329   68.2148 LP  0  0  0  0  0  0  0  0  0  0  0  0  # atno 27256 bound_to 10080
  207.7083   24.4265   77.7895 LP  0  0  0  0  0  0  0  0  0  0  0  0  # atno 27261 bound_to 16930
  208.9910   25.3974   77.5092 LP  0  0  0  0  0  0  0  0  0  0  0  0  # atno 27262 bound_to 16930
  214.6238   23.7006   75.3639 LP  0  0  0  0  0  0  0  0  0  0  0  0  # atno 27269 bound_to 11400
  215.6569   22.4370   75.4162 LP  0  0  0  0  0  0  0  0  0  0  0  0  # atno 27270 bound_to 11400

> <Gold.Score>
     Fitness  S(hb_ext) S(vdw_ext)  S(hb_int)    S(int)      intcor
     38.71       3.25      26.91       0.00      -1.54      -0.76

> <Gold.Goldscore.Fitness>
38.7055

> <Gold.Goldscore.Internal.Vdw>
-1.7486

> <Gold.Goldscore.Internal.Torsion>
-0.5457

> <Gold.Goldscore.External.Vdw>
26.9060

> <Gold.Goldscore.Internal.HBond>
0.0000

> <Gold.Goldscore.External.HBond>
3.2464

> <Gold.Goldscore.Internal.Correction>
-0.7576

> <Gold.Goldscore.Hbonds>
donor molecule, donor type, donor heavy atom, donor atom, acceptor molecule, acceptor atom, score
      P1  H 11446 11497       L1    11  0.13
      P1  H 19321 19379       L1    11  0.50

> <Gold.Goldscore.Internal.Vdw.Weighted>
-1.7486

> <Gold.Goldscore.Internal.Torsion.Weighted>
-0.5457

> <Gold.Goldscore.External.Vdw.Weighted>
36.9958

> <Gold.Goldscore.Internal.HBond.Weighted>
0.0000

> <Gold.Goldscore.External.HBond.Weighted>
3.2464

> <Gold.Goldscore.Internal.Correction.Weighted>
-0.7576

> <Gold.Rescore>
     Score     S(PLP)   S(hbond)     S(cho)   S(metal)  DE(clash)   DE(tors)     intcor
     17.86     -19.21       0.21       0.00       0.00       1.20       0.39       ----

> <Gold.PLP.Fitness>
17.8568

> <Gold.PLP.PLP>
-19.2122

> <Gold.PLP.part.hbond>
-3.1955

> <Gold.PLP.part.metal>
0.0000

> <Gold.PLP.part.buried>
-0.2568

> <Gold.PLP.part.nonpolar>
-26.0910

> <Gold.PLP.part.repulsive>
9.7632

> <Gold.PLP.ligand.clash>
1.2012

> <Gold.PLP.ligand.torsion>
0.3891

> <Gold.PLP.Chemscore.Hbond>
0.2080

> <Gold.PLP.Chemscore.CHOScore>
0.0000

> <Gold.PLP.Chemscore.Metal>
0.0000

> <Gold.PLP.Chemscore.Internal.Correction>
   9.000000E+99

#       Name:                CT1002167954
#       Creating user name   hitesit
#       Creation time:       Sun Apr 16 22:53:02 2023


#       File generated by GOLD software.
#

@<TRIPOS>MOLECULE
CT1002167954|ligand_prepared|mol2|1|dock5
    29    30     1
SMALL
NO_CHARGES


@<TRIPOS>ATOM
      1 C1         207.6156  26.3130  71.3240 C.3            1 RES1               0.0000
      2 C2         207.3588  27.4689  70.3358 C.ar           1 RES1               0.0000
      3 C3         207.5111  25.0247  70.5129 C.2            1 RES1               0.0000
      4 C4         208.9961  26.5615  71.9217 C.2            1 RES1               0.0000
      5 C5         206.5971  26.2461  72.4857 C.3            1 RES1               0.0000
      6 C6         208.1298  27.6019  69.1849 C.ar           1 RES1               0.0000
      7 C7         206.3544  28.4069  70.5597 C.ar           1 RES1               0.0000
      8 N8         208.6688  24.3649  70.2230 N.am           1 RES1               0.0000
      9 O9         206.4330  24.6152  70.1002 O.2            1 RES1               0.0000
     10 N10        209.9901  25.6619  71.6379 N.am           1 RES1               0.0000
     11 O11        209.2363  27.5371  72.6222 O.2            1 RES1               0.0000
     12 C12        206.7857  25.0444  73.3981 C.3            1 RES1               0.0000
     13 C13        207.9032  28.6334  68.2888 C.ar           1 RES1               0.0000
     14 C14        206.1296  29.4378  69.6624 C.ar           1 RES1               0.0000
     15 C15        209.8969  24.5915  70.7907 C.2            1 RES1               0.0000
     16 C16        206.9028  29.5516  68.5266 C.ar           1 RES1               0.0000
     17 O17        210.8507  23.8592  70.5435 O.2            1 RES1               0.0000
     18 H18        206.6837  27.1611  73.0844 H              1 RES1               0.0000
     19 H19        205.5841  26.2149  72.0657 H              1 RES1               0.0000
     20 H20        208.9232  26.8902  68.9822 H              1 RES1               0.0000
     21 H21        205.7345  28.3376  71.4471 H              1 RES1               0.0000
     22 H22        208.6168  23.6355  69.5190 H              1 RES1               0.0000
     23 H23        210.8821  25.8032  72.1013 H              1 RES1               0.0000
     24 H24        206.0457  25.0457  74.1957 H              1 RES1               0.0000
     25 H25        206.6810  24.1162  72.8402 H              1 RES1               0.0000
     26 H26        207.7741  25.0568  73.8528 H              1 RES1               0.0000
     27 H27        208.5154  28.7194  67.3971 H              1 RES1               0.0000
     28 H28        205.3416  30.1586  69.8539 H              1 RES1               0.0000
     29 H29        206.7252  30.3594  67.8243 H              1 RES1               0.0000
@<TRIPOS>BOND
    1    1    2 1     
    2    1    3 1     
    3    1    4 1     
    4    1    5 1     
    5    2    6 ar    
    6    2    7 ar    
    7    3    8 1     
    8    3    9 2     
    9    4   10 1     
   10    4   11 2     
   11    5   12 1     
   12    5   18 1     
   13    5   19 1     
   14    6   13 ar    
   15    6   20 1     
   16    7   14 ar    
   17    7   21 1     
   18    8   15 1     
   19    8   22 1     
   20   10   15 1     
   21   10   23 1     
   22   12   24 1     
   23   12   25 1     
   24   12   26 1     
   25   13   16 ar    
   26   13   27 1     
   27   14   16 ar    
   28   14   28 1     
   29   15   17 2     
   30   16   29 1     
@<TRIPOS>SUBSTRUCTURE
      1 RES1           1
@<TRIPOS>SET
DONOR_HYDROGENS      STATIC     ATOMS    <user>   **** ""
2 22 23
ATOM$RED        STATIC     ATOMS    COLORGROUP SYSTEM
2 22 23
@<TRIPOS>COMMENT
> <Gold.Version>
2022.3.0

> <Gold.Id.Protein>
unknown|4v3u_clean|pdb

> <Gold.Protein.RotatedTorsions>
[  563  526  525  524 ] final  130.89 input   59.98 | X-H torsion
[  717  667  668  669 ] final  -59.76 input  100.61 | X-H torsion
[ 26073 26019 26018 26016 ] final   21.85 input   60.01 | X-H torsion
[ 27142 27085 27084 27080 ] final   63.97 input   60.01 | X-H torsion
[  795  758  759  760 ] final  112.25 input  102.90 | X-H torsion
[ 18483 18438 18437 18435 ] final   87.94 input   59.97 | X-H torsion
[ 18292 18264 18263 18260 ] final   51.16 input   59.98 | X-H torsion
[ 10113 10080 10079 10076 ] final  -25.08 input   60.03 | X-H torsion
[ 16984 16930 16929 16927 ] final  172.81 input   60.03 | X-H torsion
[ 11433 11400 11399 11396 ] final   25.25 input   59.99 | X-H torsion
[ 27144 27087 27086 27084 ] final  120.69 input   60.02 | X-H torsion
[ 27201  670  669  668 ] final   92.82 input    0.00 | X-H torsion

> <Gold.Protein.ActiveResidues>
 LYS309  TRP311  GLU312  MET341  HIS342  TRP414  ALA417  ARG419  CYS420  VAL421 
 GLY422  ARG423  SER462  ALA463  SER482  GLN483  LEU484  ILE485  ARG486  ALA502 
 TRP566  TYR567  LEU569  PRO570  ALA571  VAL572  SER573  ASN574  MET575  PHE589 
 SER590  GLY591  TRP592  TYR593  MET594  GLU597  ILE598  ARG601  ASP602  ASP605 
 ARG608  TRP683  HIS697  GLU699  TYR711  HEM750  H4B760 

> <Gold.Protein.RotatedAtoms>
  215.8240   11.5928   67.6875 H   0  0  0  0  0  0  0  0  0  0  0  0  # atno 563  bound_to 526 
  216.4839   10.1235   67.2953 H   0  0  0  0  0  0  0  0  0  0  0  0  # atno 564  bound_to 526 
  216.5578   11.3807   66.2168 H   0  0  0  0  0  0  0  0  0  0  0  0  # atno 565  bound_to 526 
  209.7953    9.0954   65.9406 H   0  0  0  0  0  0  0  0  0  0  0  0  # atno 717  bound_to 667 
  207.8192    9.7214   67.5265 H   0  0  0  0  0  0  0  0  0  0  0  0  # atno 795  bound_to 758 
  205.6098   38.1193   69.8437 H   0  0  0  0  0  0  0  0  0  0  0  0  # atno 10113 bound_to 10080
  214.7434   23.6966   75.4254 H   0  0  0  0  0  0  0  0  0  0  0  0  # atno 11433 bound_to 11400
  207.9903   25.8439   76.7095 H   0  0  0  0  0  0  0  0  0  0  0  0  # atno 16984 bound_to 16930
  209.0425   36.9384   73.3044 H   0  0  0  0  0  0  0  0  0  0  0  0  # atno 18292 bound_to 18264
  206.5833   27.1218   75.6971 H   0  0  0  0  0  0  0  0  0  0  0  0  # atno 18483 bound_to 18438
  212.0135   23.4094   63.8652 H   0  0  0  0  0  0  0  0  0  0  0  0  # atno 26073 bound_to 26019
  205.0297   14.5927   63.5119 H   0  0  0  0  0  0  0  0  0  0  0  0  # atno 27142 bound_to 27085
  207.8857   15.2300   60.0459 H   0  0  0  0  0  0  0  0  0  0  0  0  # atno 27144 bound_to 27087
  209.1149   10.4761   65.1114 LP  0  0  0  0  0  0  0  0  0  0  0  0  # atno 27200 bound_to 667 
  209.6309   11.8734   69.8157 LP  0  0  0  0  0  0  0  0  0  0  0  0  # atno 27201 bound_to 670 
  210.6928   10.5052   69.8358 LP  0  0  0  0  0  0  0  0  0  0  0  0  # atno 27202 bound_to 670 
  212.1003   21.9348   63.1822 LP  0  0  0  0  0  0  0  0  0  0  0  0  # atno 27208 bound_to 26019
  212.0482   23.2704   62.2441 LP  0  0  0  0  0  0  0  0  0  0  0  0  # atno 27209 bound_to 26019
  206.0258   15.1024   64.6933 LP  0  0  0  0  0  0  0  0  0  0  0  0  # atno 27212 bound_to 27085
  206.4446   13.8285   63.7614 LP  0  0  0  0  0  0  0  0  0  0  0  0  # atno 27213 bound_to 27085
  209.2348   10.2829   68.3885 LP  0  0  0  0  0  0  0  0  0  0  0  0  # atno 27214 bound_to 758 
  205.7069   25.7565   75.5716 LP  0  0  0  0  0  0  0  0  0  0  0  0  # atno 27251 bound_to 18438
  205.7337   26.5866   76.9776 LP  0  0  0  0  0  0  0  0  0  0  0  0  # atno 27252 bound_to 18438
  210.6637   36.8628   73.4231 LP  0  0  0  0  0  0  0  0  0  0  0  0  # atno 27253 bound_to 18264
  209.7361   36.7023   74.7575 LP  0  0  0  0  0  0  0  0  0  0  0  0  # atno 27254 bound_to 18264
  205.6379   38.3288   68.2301 LP  0  0  0  0  0  0  0  0  0  0  0  0  # atno 27255 bound_to 10080
  204.7859   39.3529   69.1746 LP  0  0  0  0  0  0  0  0  0  0  0  0  # atno 27256 bound_to 10080
  207.3781   24.5750   77.5236 LP  0  0  0  0  0  0  0  0  0  0  0  0  # atno 27261 bound_to 16930
  208.9211   25.0449   77.7787 LP  0  0  0  0  0  0  0  0  0  0  0  0  # atno 27262 bound_to 16930
  215.6183   22.3267   75.3492 LP  0  0  0  0  0  0  0  0  0  0  0  0  # atno 27269 bound_to 11400
  214.1771   22.4218   74.5873 LP  0  0  0  0  0  0  0  0  0  0  0  0  # atno 27270 bound_to 11400

> <Gold.Score>
     Fitness  S(hb_ext) S(vdw_ext)  S(hb_int)    S(int)      intcor
     38.58       0.19      28.00       0.00      -0.11      -0.76

> <Gold.Goldscore.Fitness>
38.5849

> <Gold.Goldscore.Internal.Vdw>
-0.4642

> <Gold.Goldscore.Internal.Torsion>
-0.4011

> <Gold.Goldscore.External.Vdw>
27.9987

> <Gold.Goldscore.Internal.HBond>
0.0000

> <Gold.Goldscore.External.HBond>
0.1935

> <Gold.Goldscore.Internal.Correction>
-0.7585

> <Gold.Goldscore.Hbonds>
donor molecule, donor type, donor heavy atom, donor atom, acceptor molecule, acceptor atom, score
      L1  H     8    22       P1 26795  0.03

> <Gold.Goldscore.Internal.Vdw.Weighted>
-0.4642

> <Gold.Goldscore.Internal.Torsion.Weighted>
-0.4011

> <Gold.Goldscore.External.Vdw.Weighted>
38.4982

> <Gold.Goldscore.Internal.HBond.Weighted>
0.0000

> <Gold.Goldscore.External.HBond.Weighted>
0.1935

> <Gold.Goldscore.Internal.Correction.Weighted>
-0.7585

> <Gold.Rescore>
     Score     S(PLP)   S(hbond)     S(cho)   S(metal)  DE(clash)   DE(tors)     intcor
     35.70     -34.90       0.67       0.00       0.00       0.00       0.60       ----

> <Gold.PLP.Fitness>
35.6971

> <Gold.PLP.PLP>
-34.9010

> <Gold.PLP.part.hbond>
-0.6790

> <Gold.PLP.part.metal>
0.0000

> <Gold.PLP.part.buried>
2.4811

> <Gold.PLP.part.nonpolar>
-41.5375

> <Gold.PLP.part.repulsive>
5.1101

> <Gold.PLP.ligand.clash>
0.0000

> <Gold.PLP.ligand.torsion>
0.6013

> <Gold.PLP.Chemscore.Hbond>
0.6663

> <Gold.PLP.Chemscore.CHOScore>
0.0000

> <Gold.PLP.Chemscore.Metal>
0.0000

> <Gold.Chemscore.Hbonds>
donor molecule, donor type, donor heavy atom, donor atom, acceptor molecule, acceptor atom, score
      L1  H     8    22       P1 26795  0.41

> <Gold.PLP.Chemscore.Internal.Correction>
   9.000000E+99

#       Name:                CT1002167954
#       Creating user name   hitesit
#       Creation time:       Sun Apr 16 22:53:03 2023


#       File generated by GOLD software.
#

@<TRIPOS>MOLECULE
CT1002167954|ligand_prepared|mol2|1|dock6
    29    30     1
SMALL
NO_CHARGES


@<TRIPOS>ATOM
      1 C1         209.7217  25.3207  70.3561 C.3            1 RES1               0.0000
      2 C2         208.7281  26.4592  70.0474 C.ar           1 RES1               0.0000
      3 C3         210.1700  24.7658  69.0073 C.2            1 RES1               0.0000
      4 C4         210.8449  25.9454  71.1762 C.2            1 RES1               0.0000
      5 C5         209.1111  24.1658  71.1839 C.3            1 RES1               0.0000
      6 C6         207.8210  26.8889  71.0115 C.ar           1 RES1               0.0000
      7 C7         208.7084  27.0901  68.8064 C.ar           1 RES1               0.0000
      8 N8         211.4303  25.0717  68.5856 N.am           1 RES1               0.0000
      9 O9         209.4154  24.1028  68.3063 O.2            1 RES1               0.0000
     10 N10        212.0959  25.9947  70.6190 N.am           1 RES1               0.0000
     11 O11        210.6545  26.4104  72.2933 O.2            1 RES1               0.0000
     12 C12        210.0147  22.9481  71.2970 C.3            1 RES1               0.0000
     13 C13        206.9285  27.9141  70.7455 C.ar           1 RES1               0.0000
     14 C14        207.8149  28.1151  68.5425 C.ar           1 RES1               0.0000
     15 C15        212.4329  25.6140  69.3487 C.2            1 RES1               0.0000
     16 C16        206.9252  28.5281  69.5112 C.ar           1 RES1               0.0000
     17 O17        213.5689  25.7397  68.9005 O.2            1 RES1               0.0000
     18 H18        208.8873  24.5344  72.1926 H              1 RES1               0.0000
     19 H19        208.1646  23.8613  70.7205 H              1 RES1               0.0000
     20 H20        207.8072  26.4159  71.9878 H              1 RES1               0.0000
     21 H21        209.3986  26.7809  68.0288 H              1 RES1               0.0000
     22 H22        211.6474  24.8797  67.6128 H              1 RES1               0.0000
     23 H23        212.8453  26.3478  71.2056 H              1 RES1               0.0000
     24 H24        209.5386  22.1680  71.8874 H              1 RES1               0.0000
     25 H25        210.2373  22.5403  70.3132 H              1 RES1               0.0000
     26 H26        210.9558  23.2094  71.7765 H              1 RES1               0.0000
     27 H27        206.2294  28.2346  71.5109 H              1 RES1               0.0000
     28 H28        207.8154  28.5950  67.5694 H              1 RES1               0.0000
     29 H29        206.2262  29.3315  69.3033 H              1 RES1               0.0000
@<TRIPOS>BOND
    1    1    2 1     
    2    1    3 1     
    3    1    4 1     
    4    1    5 1     
    5    2    6 ar    
    6    2    7 ar    
    7    3    8 1     
    8    3    9 2     
    9    4   10 1     
   10    4   11 2     
   11    5   12 1     
   12    5   18 1     
   13    5   19 1     
   14    6   13 ar    
   15    6   20 1     
   16    7   14 ar    
   17    7   21 1     
   18    8   15 1     
   19    8   22 1     
   20   10   15 1     
   21   10   23 1     
   22   12   24 1     
   23   12   25 1     
   24   12   26 1     
   25   13   16 ar    
   26   13   27 1     
   27   14   16 ar    
   28   14   28 1     
   29   15   17 2     
   30   16   29 1     
@<TRIPOS>SUBSTRUCTURE
      1 RES1           1
@<TRIPOS>SET
DONOR_HYDROGENS      STATIC     ATOMS    <user>   **** ""
2 22 23
ATOM$RED        STATIC     ATOMS    COLORGROUP SYSTEM
2 22 23
@<TRIPOS>COMMENT
> <Gold.Version>
2022.3.0

> <Gold.Id.Protein>
unknown|4v3u_clean|pdb

> <Gold.Protein.RotatedTorsions>
[  563  526  525  524 ] final    9.49 input   59.98 | X-H torsion
[  717  667  668  669 ] final   64.06 input  100.61 | X-H torsion
[ 26073 26019 26018 26016 ] final  -80.51 input   60.01 | X-H torsion
[ 27142 27085 27084 27080 ] final  174.25 input   60.01 | X-H torsion
[  795  758  759  760 ] final   84.41 input  102.90 | X-H torsion
[ 18483 18438 18437 18435 ] final   58.98 input   59.97 | X-H torsion
[ 18292 18264 18263 18260 ] final   28.66 input   59.98 | X-H torsion
[ 10113 10080 10079 10076 ] final -164.80 input   60.03 | X-H torsion
[ 16984 16930 16929 16927 ] final  159.68 input   60.03 | X-H torsion
[ 11433 11400 11399 11396 ] final -139.53 input   59.99 | X-H torsion
[ 27144 27087 27086 27084 ] final   45.01 input   60.02 | X-H torsion
[ 27201  670  669  668 ] final  -91.61 input    0.00 | X-H torsion

> <Gold.Protein.ActiveResidues>
 LYS309  TRP311  GLU312  MET341  HIS342  TRP414  ALA417  ARG419  CYS420  VAL421 
 GLY422  ARG423  SER462  ALA463  SER482  GLN483  LEU484  ILE485  ARG486  ALA502 
 TRP566  TYR567  LEU569  PRO570  ALA571  VAL572  SER573  ASN574  MET575  PHE589 
 SER590  GLY591  TRP592  TYR593  MET594  GLU597  ILE598  ARG601  ASP602  ASP605 
 ARG608  TRP683  HIS697  GLU699  TYR711  HEM750  H4B760 

> <Gold.Protein.RotatedAtoms>
  216.5671   11.3592   66.2112 H   0  0  0  0  0  0  0  0  0  0  0  0  # atno 563  bound_to 526 
  215.8250   11.6104   67.6722 H   0  0  0  0  0  0  0  0  0  0  0  0  # atno 564  bound_to 526 
  216.4740   10.1270   67.3154 H   0  0  0  0  0  0  0  0  0  0  0  0  # atno 565  bound_to 526 
  208.6167   10.0718   65.6277 H   0  0  0  0  0  0  0  0  0  0  0  0  # atno 717  bound_to 667 
  208.0928    9.3940   67.4992 H   0  0  0  0  0  0  0  0  0  0  0  0  # atno 795  bound_to 758 
  205.4611   38.5871   68.1556 H   0  0  0  0  0  0  0  0  0  0  0  0  # atno 10113 bound_to 10080
  215.1636   21.9553   74.9397 H   0  0  0  0  0  0  0  0  0  0  0  0  # atno 11433 bound_to 11400
  207.7922   25.7648   76.6926 H   0  0  0  0  0  0  0  0  0  0  0  0  # atno 16984 bound_to 16930
  209.3046   36.9656   73.0514 H   0  0  0  0  0  0  0  0  0  0  0  0  # atno 18292 bound_to 18264
  206.5040   26.8125   75.3549 H   0  0  0  0  0  0  0  0  0  0  0  0  # atno 18483 bound_to 18438
  212.0934   22.0099   63.4604 H   0  0  0  0  0  0  0  0  0  0  0  0  # atno 26073 bound_to 26019
  206.3355   13.7950   63.6501 H   0  0  0  0  0  0  0  0  0  0  0  0  # atno 27142 bound_to 27085
  208.0783   16.0366   60.8405 H   0  0  0  0  0  0  0  0  0  0  0  0  # atno 27144 bound_to 27087
  210.2637    9.5244   65.4164 LP  0  0  0  0  0  0  0  0  0  0  0  0  # atno 27200 bound_to 667 
  210.6466   10.4732   69.8724 LP  0  0  0  0  0  0  0  0  0  0  0  0  # atno 27201 bound_to 670 
  209.6771   11.9055   69.7791 LP  0  0  0  0  0  0  0  0  0  0  0  0  # atno 27202 bound_to 670 
  212.0640   22.9932   62.1639 LP  0  0  0  0  0  0  0  0  0  0  0  0  # atno 27208 bound_to 26019
  212.0040   23.6213   63.6700 LP  0  0  0  0  0  0  0  0  0  0  0  0  # atno 27209 bound_to 26019
  204.9937   14.7148   63.6079 LP  0  0  0  0  0  0  0  0  0  0  0  0  # atno 27212 bound_to 27085
  206.1617   15.0194   64.7077 LP  0  0  0  0  0  0  0  0  0  0  0  0  # atno 27213 bound_to 27085
  208.9696   10.6002   68.4150 LP  0  0  0  0  0  0  0  0  0  0  0  0  # atno 27214 bound_to 758 
  205.5057   25.6976   75.9939 LP  0  0  0  0  0  0  0  0  0  0  0  0  # atno 27251 bound_to 18438
  206.0148   26.9571   76.9001 LP  0  0  0  0  0  0  0  0  0  0  0  0  # atno 27252 bound_to 18438
  210.7534   36.8078   73.7756 LP  0  0  0  0  0  0  0  0  0  0  0  0  # atno 27253 bound_to 18264
  209.3827   36.7299   74.6597 LP  0  0  0  0  0  0  0  0  0  0  0  0  # atno 27254 bound_to 18264
  204.8132   39.2669   69.4847 LP  0  0  0  0  0  0  0  0  0  0  0  0  # atno 27255 bound_to 10080
  205.7604   37.9436   69.6201 LP  0  0  0  0  0  0  0  0  0  0  0  0  # atno 27256 bound_to 10080
  207.5189   24.4849   77.6597 LP  0  0  0  0  0  0  0  0  0  0  0  0  # atno 27261 bound_to 16930
  208.9798   25.2147   77.6595 LP  0  0  0  0  0  0  0  0  0  0  0  0  # atno 27262 bound_to 16930
  214.0145   23.0957   74.7753 LP  0  0  0  0  0  0  0  0  0  0  0  0  # atno 27269 bound_to 11400
  215.3578   23.4063   75.6503 LP  0  0  0  0  0  0  0  0  0  0  0  0  # atno 27270 bound_to 11400

> <Gold.Score>
     Fitness  S(hb_ext) S(vdw_ext)  S(hb_int)    S(int)      intcor
     37.40       6.21      23.43       0.00      -1.03      -0.76

> <Gold.Goldscore.Fitness>
37.4022

> <Gold.Goldscore.Internal.Vdw>
-1.2794

> <Gold.Goldscore.Internal.Torsion>
-0.5106

> <Gold.Goldscore.External.Vdw>
23.4331

> <Gold.Goldscore.Internal.HBond>
0.0000

> <Gold.Goldscore.External.HBond>
6.2131

> <Gold.Goldscore.Internal.Correction>
-0.7585

> <Gold.Goldscore.Hbonds>
donor molecule, donor type, donor heavy atom, donor atom, acceptor molecule, acceptor atom, score
      L1  H     8    22       P1 26790  0.99
      L1  H    10    23       P1 11398  0.14

> <Gold.Goldscore.Internal.Vdw.Weighted>
-1.2794

> <Gold.Goldscore.Internal.Torsion.Weighted>
-0.5106

> <Gold.Goldscore.External.Vdw.Weighted>
32.2206

> <Gold.Goldscore.Internal.HBond.Weighted>
0.0000

> <Gold.Goldscore.External.HBond.Weighted>
6.2131

> <Gold.Goldscore.Internal.Correction.Weighted>
-0.7585

> <Gold.Rescore>
     Score     S(PLP)   S(hbond)     S(cho)   S(metal)  DE(clash)   DE(tors)     intcor
     17.14     -15.54       1.00       0.00       0.00       1.34       0.03       ----

> <Gold.PLP.Fitness>
17.1448

> <Gold.PLP.PLP>
-15.5355

> <Gold.PLP.part.hbond>
-1.7965

> <Gold.PLP.part.metal>
0.0000

> <Gold.PLP.part.buried>
7.7859

> <Gold.PLP.part.nonpolar>
-31.7956

> <Gold.PLP.part.repulsive>
9.4383

> <Gold.PLP.ligand.clash>
1.3390

> <Gold.PLP.ligand.torsion>
0.0258

> <Gold.PLP.Chemscore.Hbond>
1.0000

> <Gold.PLP.Chemscore.CHOScore>
0.0000

> <Gold.PLP.Chemscore.Metal>
0.0000

> <Gold.Chemscore.Hbonds>
donor molecule, donor type, donor heavy atom, donor atom, acceptor molecule, acceptor atom, score
      L1  H     8    22       P1 26790  1.00

> <Gold.PLP.Chemscore.Internal.Correction>
   9.000000E+99

#       Name:                CT1002167954
#       Creating user name   hitesit
#       Creation time:       Sun Apr 16 22:53:01 2023


#       File generated by GOLD software.
#

@<TRIPOS>MOLECULE
CT1002167954|ligand_prepared|mol2|1|dock4
    29    30     1
SMALL
NO_CHARGES


@<TRIPOS>ATOM
      1 C1         207.3296  23.2136  71.6515 C.3            1 RES1               0.0000
      2 C2         208.5943  23.8634  71.0539 C.ar           1 RES1               0.0000
      3 C3         207.7984  21.9627  72.3890 C.2            1 RES1               0.0000
      4 C4         206.6946  24.2662  72.5533 C.2            1 RES1               0.0000
      5 C5         206.2821  22.7962  70.5932 C.3            1 RES1               0.0000
      6 C6         208.4925  24.9553  70.1970 C.ar           1 RES1               0.0000
      7 C7         209.8674  23.3849  71.3519 C.ar           1 RES1               0.0000
      8 N8         207.8113  22.0005  73.7522 N.am           1 RES1               0.0000
      9 O9         208.1883  20.9721  71.7831 O.2            1 RES1               0.0000
     10 N10        206.6559  24.0186  73.9005 N.am           1 RES1               0.0000
     11 O11        206.2423  25.3151  72.1113 O.2            1 RES1               0.0000
     12 C12        205.0367  22.1537  71.1834 C.3            1 RES1               0.0000
     13 C13        209.6226  25.5491  69.6597 C.ar           1 RES1               0.0000
     14 C14        210.9962  23.9800  70.8133 C.ar           1 RES1               0.0000
     15 C15        207.2131  22.9474  74.5441 C.2            1 RES1               0.0000
     16 C16        210.8750  25.0622  69.9678 C.ar           1 RES1               0.0000
     17 O17        207.1846  22.8218  75.7650 O.2            1 RES1               0.0000
     18 H18        205.9843  23.6840  70.0218 H              1 RES1               0.0000
     19 H19        206.7473  22.0889  69.8955 H              1 RES1               0.0000
     20 H20        207.5151  25.3507  69.9412 H              1 RES1               0.0000
     21 H21        209.9867  22.5339  72.0138 H              1 RES1               0.0000
     22 H22        208.3121  21.2559  74.2266 H              1 RES1               0.0000
     23 H23        206.1663  24.6956  74.4770 H              1 RES1               0.0000
     24 H24        204.3348  21.8801  70.3984 H              1 RES1               0.0000
     25 H25        205.2930  21.2532  71.7378 H              1 RES1               0.0000
     26 H26        204.5345  22.8389  71.8633 H              1 RES1               0.0000
     27 H27        209.5217  26.3997  68.9937 H              1 RES1               0.0000
     28 H28        211.9799  23.5932  71.0580 H              1 RES1               0.0000
     29 H29        211.7601  25.5278  69.5470 H              1 RES1               0.0000
@<TRIPOS>BOND
    1    1    2 1     
    2    1    3 1     
    3    1    4 1     
    4    1    5 1     
    5    2    6 ar    
    6    2    7 ar    
    7    3    8 1     
    8    3    9 2     
    9    4   10 1     
   10    4   11 2     
   11    5   12 1     
   12    5   18 1     
   13    5   19 1     
   14    6   13 ar    
   15    6   20 1     
   16    7   14 ar    
   17    7   21 1     
   18    8   15 1     
   19    8   22 1     
   20   10   15 1     
   21   10   23 1     
   22   12   24 1     
   23   12   25 1     
   24   12   26 1     
   25   13   16 ar    
   26   13   27 1     
   27   14   16 ar    
   28   14   28 1     
   29   15   17 2     
   30   16   29 1     
@<TRIPOS>SUBSTRUCTURE
      1 RES1           1
@<TRIPOS>SET
DONOR_HYDROGENS      STATIC     ATOMS    <user>   **** ""
2 22 23
ATOM$RED        STATIC     ATOMS    COLORGROUP SYSTEM
2 22 23
@<TRIPOS>COMMENT
> <Gold.Version>
2022.3.0

> <Gold.Id.Protein>
unknown|4v3u_clean|pdb

> <Gold.Protein.RotatedTorsions>
[  563  526  525  524 ] final  168.93 input   59.98 | X-H torsion
[  717  667  668  669 ] final  136.67 input  100.61 | X-H torsion
[ 26073 26019 26018 26016 ] final   -9.92 input   60.01 | X-H torsion
[ 27142 27085 27084 27080 ] final  -13.69 input   60.01 | X-H torsion
[  795  758  759  760 ] final   67.85 input  102.90 | X-H torsion
[ 18483 18438 18437 18435 ] final -118.76 input   59.97 | X-H torsion
[ 18292 18264 18263 18260 ] final  165.90 input   59.98 | X-H torsion
[ 10113 10080 10079 10076 ] final  179.96 input   60.03 | X-H torsion
[ 16984 16930 16929 16927 ] final  175.05 input   60.03 | X-H torsion
[ 11433 11400 11399 11396 ] final  103.28 input   59.99 | X-H torsion
[ 27144 27087 27086 27084 ] final    0.62 input   60.02 | X-H torsion
[ 27201  670  669  668 ] final  130.00 input    0.00 | X-H torsion

> <Gold.Protein.ActiveResidues>
 LYS309  TRP311  GLU312  MET341  HIS342  TRP414  ALA417  ARG419  CYS420  VAL421 
 GLY422  ARG423  SER462  ALA463  SER482  GLN483  LEU484  ILE485  ARG486  ALA502 
 TRP566  TYR567  LEU569  PRO570  ALA571  VAL572  SER573  ASN574  MET575  PHE589 
 SER590  GLY591  TRP592  TYR593  MET594  GLU597  ILE598  ARG601  ASP602  ASP605 
 ARG608  TRP683  HIS697  GLU699  TYR711  HEM750  H4B760 

> <Gold.Protein.RotatedAtoms>
  215.8964   11.0267   67.9394 H   0  0  0  0  0  0  0  0  0  0  0  0  # atno 563  bound_to 526 
  216.7036   10.2409   66.7232 H   0  0  0  0  0  0  0  0  0  0  0  0  # atno 564  bound_to 526 
  216.2657   11.8292   66.5373 H   0  0  0  0  0  0  0  0  0  0  0  0  # atno 565  bound_to 526 
  209.3417   10.5093   65.0096 H   0  0  0  0  0  0  0  0  0  0  0  0  # atno 717  bound_to 667 
  208.3094    9.2625   67.5355 H   0  0  0  0  0  0  0  0  0  0  0  0  # atno 795  bound_to 758 
  205.3142   38.7870   68.1679 H   0  0  0  0  0  0  0  0  0  0  0  0  # atno 10113 bound_to 10080
  214.0171   23.0534   74.7559 H   0  0  0  0  0  0  0  0  0  0  0  0  # atno 11433 bound_to 11400
  208.0250   25.8540   76.7157 H   0  0  0  0  0  0  0  0  0  0  0  0  # atno 16984 bound_to 16930
  209.6515   36.7050   74.7404 H   0  0  0  0  0  0  0  0  0  0  0  0  # atno 18292 bound_to 18264
  205.5015   26.1405   76.7856 H   0  0  0  0  0  0  0  0  0  0  0  0  # atno 18483 bound_to 18438
  212.0355   22.9258   64.0336 H   0  0  0  0  0  0  0  0  0  0  0  0  # atno 26073 bound_to 26019
  205.4262   15.2404   64.4072 H   0  0  0  0  0  0  0  0  0  0  0  0  # atno 27142 bound_to 27085
  207.6112   16.5594   60.9337 H   0  0  0  0  0  0  0  0  0  0  0  0  # atno 27144 bound_to 27087
  209.5570    9.0979   66.0189 LP  0  0  0  0  0  0  0  0  0  0  0  0  # atno 27200 bound_to 667 
  209.3905   11.4683   70.1037 LP  0  0  0  0  0  0  0  0  0  0  0  0  # atno 27201 bound_to 670 
  210.9332   10.9104   69.5478 LP  0  0  0  0  0  0  0  0  0  0  0  0  # atno 27202 bound_to 670 
  212.1045   22.0320   62.6753 LP  0  0  0  0  0  0  0  0  0  0  0  0  # atno 27208 bound_to 26019
  212.0219   23.6602   62.5814 LP  0  0  0  0  0  0  0  0  0  0  0  0  # atno 27209 bound_to 26019
  206.6745   14.2042   64.2806 LP  0  0  0  0  0  0  0  0  0  0  0  0  # atno 27212 bound_to 27085
  205.3965   14.0745   63.2724 LP  0  0  0  0  0  0  0  0  0  0  0  0  # atno 27213 bound_to 27085
  208.7598   10.7276   68.3798 LP  0  0  0  0  0  0  0  0  0  0  0  0  # atno 27214 bound_to 758 
  206.5025   27.2840   76.2041 LP  0  0  0  0  0  0  0  0  0  0  0  0  # atno 27251 bound_to 18438
  206.0279   26.0477   75.2487 LP  0  0  0  0  0  0  0  0  0  0  0  0  # atno 27252 bound_to 18438
  209.0896   36.9500   73.2330 LP  0  0  0  0  0  0  0  0  0  0  0  0  # atno 27253 bound_to 18264
  210.6972   36.8500   73.5020 LP  0  0  0  0  0  0  0  0  0  0  0  0  # atno 27254 bound_to 18264
  204.8775   39.1459   69.6939 LP  0  0  0  0  0  0  0  0  0  0  0  0  # atno 27255 bound_to 10080
  205.8440   37.8633   69.3985 LP  0  0  0  0  0  0  0  0  0  0  0  0  # atno 27256 bound_to 10080
  207.3577   24.5935   77.4991 LP  0  0  0  0  0  0  0  0  0  0  0  0  # atno 27261 bound_to 16930
  208.9066   25.0163   77.7969 LP  0  0  0  0  0  0  0  0  0  0  0  0  # atno 27262 bound_to 16930
  215.3246   23.4380   75.6450 LP  0  0  0  0  0  0  0  0  0  0  0  0  # atno 27269 bound_to 11400
  215.2022   21.9582   74.9656 LP  0  0  0  0  0  0  0  0  0  0  0  0  # atno 27270 bound_to 11400

> <Gold.Score>
     Fitness  S(hb_ext) S(vdw_ext)  S(hb_int)    S(int)      intcor
     37.33       6.99      23.50       0.00      -1.98      -0.76

> <Gold.Goldscore.Fitness>
37.3308

> <Gold.Goldscore.Internal.Vdw>
-2.3710

> <Gold.Goldscore.Internal.Torsion>
-0.3676

> <Gold.Goldscore.External.Vdw>
23.5035

> <Gold.Goldscore.Internal.HBond>
0.0000

> <Gold.Goldscore.External.HBond>
6.9935

> <Gold.Goldscore.Internal.Correction>
-0.7585

> <Gold.Goldscore.Hbonds>
donor molecule, donor type, donor heavy atom, donor atom, acceptor molecule, acceptor atom, score
      P1  H 11446 11497       L1    17  0.03
      P1  H 19321 19379       L1    17  1.00
      L1  H    10    23       P1 18438  0.47

> <Gold.Goldscore.Internal.Vdw.Weighted>
-2.3710

> <Gold.Goldscore.Internal.Torsion.Weighted>
-0.3676

> <Gold.Goldscore.External.Vdw.Weighted>
32.3174

> <Gold.Goldscore.Internal.HBond.Weighted>
0.0000

> <Gold.Goldscore.External.HBond.Weighted>
6.9935

> <Gold.Goldscore.Internal.Correction.Weighted>
-0.7585

> <Gold.Rescore>
     Score     S(PLP)   S(hbond)     S(cho)   S(metal)  DE(clash)   DE(tors)     intcor
     25.02     -23.13       1.13       0.00       0.00       1.31       0.09       ----

> <Gold.PLP.Fitness>
25.0193

> <Gold.PLP.PLP>
-23.1316

> <Gold.PLP.part.hbond>
-3.5174

> <Gold.PLP.part.metal>
0.0000

> <Gold.PLP.part.buried>
-0.9552

> <Gold.PLP.part.nonpolar>
-21.3540

> <Gold.PLP.part.repulsive>
2.1897

> <Gold.PLP.ligand.clash>
1.3072

> <Gold.PLP.ligand.torsion>
0.0935

> <Gold.PLP.Chemscore.Hbond>
1.1273

> <Gold.PLP.Chemscore.CHOScore>
0.0000

> <Gold.PLP.Chemscore.Metal>
0.0000

> <Gold.Chemscore.Hbonds>
donor molecule, donor type, donor heavy atom, donor atom, acceptor molecule, acceptor atom, score
      P1  H 19321 19379       L1    17  0.99

> <Gold.PLP.Chemscore.Internal.Correction>
   9.000000E+99

#       Name:                CT1002167954
#       Creating user name   hitesit
#       Creation time:       Sun Apr 16 22:53:04 2023


#       File generated by GOLD software.
#

@<TRIPOS>MOLECULE
CT1002167954|ligand_prepared|mol2|1|dock7
    29    30     1
SMALL
NO_CHARGES


@<TRIPOS>ATOM
      1 C1         207.2622  23.0847  72.3271 C.3            1 RES1               0.0000
      2 C2         207.8649  24.4995  72.4447 C.ar           1 RES1               0.0000
      3 C3         207.9108  22.4429  71.1041 C.2            1 RES1               0.0000
      4 C4         207.5754  22.3770  73.6408 C.2            1 RES1               0.0000
      5 C5         205.7281  23.0733  72.1323 C.3            1 RES1               0.0000
      6 C6         207.1916  25.5012  73.1375 C.ar           1 RES1               0.0000
      7 C7         209.0922  24.8168  71.8689 C.ar           1 RES1               0.0000
      8 N8         208.8500  21.4780  71.3203 N.am           1 RES1               0.0000
      9 O9         207.6312  22.8058  69.9682 O.2            1 RES1               0.0000
     10 N10        208.4237  21.3014  73.6043 N.am           1 RES1               0.0000
     11 O11        207.1085  22.7514  74.7095 O.2            1 RES1               0.0000
     12 C12        205.1742  21.7229  71.7060 C.3            1 RES1               0.0000
     13 C13        207.7273  26.7732  73.2532 C.ar           1 RES1               0.0000
     14 C14        209.6260  26.0895  71.9856 C.ar           1 RES1               0.0000
     15 C15        209.0993  20.8388  72.5081 C.2            1 RES1               0.0000
     16 C16        208.9449  27.0681  72.6778 C.ar           1 RES1               0.0000
     17 O17        209.8876  19.8994  72.5654 O.2            1 RES1               0.0000
     18 H18        205.2503  23.3695  73.0743 H              1 RES1               0.0000
     19 H19        205.4630  23.8192  71.3729 H              1 RES1               0.0000
     20 H20        206.2311  25.2884  73.5949 H              1 RES1               0.0000
     21 H21        209.6453  24.0631  71.3188 H              1 RES1               0.0000
     22 H22        209.4197  21.2066  70.5252 H              1 RES1               0.0000
     23 H23        208.5644  20.7990  74.4750 H              1 RES1               0.0000
     24 H24        204.0941  21.7702  71.5835 H              1 RES1               0.0000
     25 H25        205.6091  21.4089  70.7594 H              1 RES1               0.0000
     26 H26        205.3977  20.9618  72.4508 H              1 RES1               0.0000
     27 H27        207.1866  27.5402  73.7978 H              1 RES1               0.0000
     28 H28        210.5843  26.3173  71.5306 H              1 RES1               0.0000
     29 H29        209.3645  28.0646  72.7689 H              1 RES1               0.0000
@<TRIPOS>BOND
    1    1    2 1     
    2    1    3 1     
    3    1    4 1     
    4    1    5 1     
    5    2    6 ar    
    6    2    7 ar    
    7    3    8 1     
    8    3    9 2     
    9    4   10 1     
   10    4   11 2     
   11    5   12 1     
   12    5   18 1     
   13    5   19 1     
   14    6   13 ar    
   15    6   20 1     
   16    7   14 ar    
   17    7   21 1     
   18    8   15 1     
   19    8   22 1     
   20   10   15 1     
   21   10   23 1     
   22   12   24 1     
   23   12   25 1     
   24   12   26 1     
   25   13   16 ar    
   26   13   27 1     
   27   14   16 ar    
   28   14   28 1     
   29   15   17 2     
   30   16   29 1     
@<TRIPOS>SUBSTRUCTURE
      1 RES1           1
@<TRIPOS>SET
DONOR_HYDROGENS      STATIC     ATOMS    <user>   **** ""
2 22 23
ATOM$RED        STATIC     ATOMS    COLORGROUP SYSTEM
2 22 23
@<TRIPOS>COMMENT
> <Gold.Version>
2022.3.0

> <Gold.Id.Protein>
unknown|4v3u_clean|pdb

> <Gold.Protein.RotatedTorsions>
[  563  526  525  524 ] final -179.92 input   59.98 | X-H torsion
[  717  667  668  669 ] final   75.13 input  100.61 | X-H torsion
[ 26073 26019 26018 26016 ] final  169.13 input   60.01 | X-H torsion
[ 27142 27085 27084 27080 ] final -165.70 input   60.01 | X-H torsion
[  795  758  759  760 ] final    0.04 input  102.90 | X-H torsion
[ 18483 18438 18437 18435 ] final  104.82 input   59.97 | X-H torsion
[ 18292 18264 18263 18260 ] final  -70.88 input   59.98 | X-H torsion
[ 10113 10080 10079 10076 ] final   92.43 input   60.03 | X-H torsion
[ 16984 16930 16929 16927 ] final  144.69 input   60.03 | X-H torsion
[ 11433 11400 11399 11396 ] final   63.90 input   59.99 | X-H torsion
[ 27144 27087 27086 27084 ] final -156.87 input   60.02 | X-H torsion
[ 27201  670  669  668 ] final  166.68 input    0.00 | X-H torsion

> <Gold.Protein.ActiveResidues>
 LYS309  TRP311  GLU312  MET341  HIS342  TRP414  ALA417  ARG419  CYS420  VAL421 
 GLY422  ARG423  SER462  ALA463  SER482  GLN483  LEU484  ILE485  ARG486  ALA502 
 TRP566  TYR567  LEU569  PRO570  ALA571  VAL572  SER573  ASN574  MET575  PHE589 
 SER590  GLY591  TRP592  TYR593  MET594  GLU597  ILE598  ARG601  ASP602  ASP605 
 ARG608  TRP683  HIS697  GLU699  TYR711  HEM750  H4B760 

> <Gold.Protein.RotatedAtoms>
  215.9527   10.8495   67.9437 H   0  0  0  0  0  0  0  0  0  0  0  0  # atno 563  bound_to 526 
  216.7370   10.3454   66.5730 H   0  0  0  0  0  0  0  0  0  0  0  0  # atno 564  bound_to 526 
  216.1760   11.9017   66.6832 H   0  0  0  0  0  0  0  0  0  0  0  0  # atno 565  bound_to 526 
  208.6603   10.1935   65.5160 H   0  0  0  0  0  0  0  0  0  0  0  0  # atno 717  bound_to 667 
  209.1835    9.3958   67.9840 H   0  0  0  0  0  0  0  0  0  0  0  0  # atno 795  bound_to 758 
  204.7912   39.3428   69.2144 H   0  0  0  0  0  0  0  0  0  0  0  0  # atno 10113 bound_to 10080
  214.2501   23.5382   75.0857 H   0  0  0  0  0  0  0  0  0  0  0  0  # atno 11433 bound_to 11400
  207.5859   25.6359   76.7146 H   0  0  0  0  0  0  0  0  0  0  0  0  # atno 16984 bound_to 16930
  210.6716   36.8548   73.4555 H   0  0  0  0  0  0  0  0  0  0  0  0  # atno 18292 bound_to 18264
  206.5630   27.2328   75.9478 H   0  0  0  0  0  0  0  0  0  0  0  0  # atno 18483 bound_to 18438
  212.0743   22.8354   62.1635 H   0  0  0  0  0  0  0  0  0  0  0  0  # atno 26073 bound_to 26019
  206.5346   13.8982   63.8867 H   0  0  0  0  0  0  0  0  0  0  0  0  # atno 27142 bound_to 27085
  206.8057   15.6087   59.5849 H   0  0  0  0  0  0  0  0  0  0  0  0  # atno 27144 bound_to 27087
  210.2212    9.4058   65.5252 LP  0  0  0  0  0  0  0  0  0  0  0  0  # atno 27200 bound_to 667 
  209.4606   10.9565   70.2774 LP  0  0  0  0  0  0  0  0  0  0  0  0  # atno 27201 bound_to 670 
  210.8631   11.4221   69.3741 LP  0  0  0  0  0  0  0  0  0  0  0  0  # atno 27202 bound_to 670 
  212.0021   23.7064   63.5364 LP  0  0  0  0  0  0  0  0  0  0  0  0  # atno 27208 bound_to 26019
  212.0852   22.0769   63.6034 LP  0  0  0  0  0  0  0  0  0  0  0  0  # atno 27209 bound_to 26019
  205.0794   14.4585   63.4214 LP  0  0  0  0  0  0  0  0  0  0  0  0  # atno 27212 bound_to 27085
  205.8755   15.1718   64.6559 LP  0  0  0  0  0  0  0  0  0  0  0  0  # atno 27213 bound_to 27085
  207.9128   10.5984   67.9452 LP  0  0  0  0  0  0  0  0  0  0  0  0  # atno 27214 bound_to 758 
  205.8635   25.8785   75.3784 LP  0  0  0  0  0  0  0  0  0  0  0  0  # atno 27251 bound_to 18438
  205.5977   26.3529   76.9182 LP  0  0  0  0  0  0  0  0  0  0  0  0  # atno 27252 bound_to 18438
  209.7029   36.7040   74.7544 LP  0  0  0  0  0  0  0  0  0  0  0  0  # atno 27253 bound_to 18264
  209.0569   36.9452   73.2741 LP  0  0  0  0  0  0  0  0  0  0  0  0  # atno 27254 bound_to 18264
  205.6311   38.0894   69.8244 LP  0  0  0  0  0  0  0  0  0  0  0  0  # atno 27255 bound_to 10080
  205.6170   38.3601   68.2141 LP  0  0  0  0  0  0  0  0  0  0  0  0  # atno 27256 bound_to 10080
  207.7161   24.4252   77.7939 LP  0  0  0  0  0  0  0  0  0  0  0  0  # atno 27261 bound_to 16930
  208.9903   25.4042   77.5031 LP  0  0  0  0  0  0  0  0  0  0  0  0  # atno 27262 bound_to 16930
  215.6526   22.8955   75.6032 LP  0  0  0  0  0  0  0  0  0  0  0  0  # atno 27269 bound_to 11400
  214.6397   22.0125   74.6754 LP  0  0  0  0  0  0  0  0  0  0  0  0  # atno 27270 bound_to 11400

> <Gold.Score>
     Fitness  S(hb_ext) S(vdw_ext)  S(hb_int)    S(int)      intcor
     34.81       3.45      23.53       0.00      -1.00      -0.76

> <Gold.Goldscore.Fitness>
34.8146

> <Gold.Goldscore.Internal.Vdw>
-1.1167

> <Gold.Goldscore.Internal.Torsion>
-0.6381

> <Gold.Goldscore.External.Vdw>
23.5336

> <Gold.Goldscore.Internal.HBond>
0.0000

> <Gold.Goldscore.External.HBond>
3.4523

> <Gold.Goldscore.Internal.Correction>
-0.7585

> <Gold.Goldscore.Hbonds>
donor molecule, donor type, donor heavy atom, donor atom, acceptor molecule, acceptor atom, score
      P1  H 11669 11729       L1    17  0.06
      P1  H 19320 19377       L1    11  0.02
      P1  H 11446 11497       L1    11  0.09
      P1  H 19321 19379       L1    11  0.47

> <Gold.Goldscore.Internal.Vdw.Weighted>
-1.1167

> <Gold.Goldscore.Internal.Torsion.Weighted>
-0.6381

> <Gold.Goldscore.External.Vdw.Weighted>
32.3586

> <Gold.Goldscore.Internal.HBond.Weighted>
0.0000

> <Gold.Goldscore.External.HBond.Weighted>
3.4523

> <Gold.Goldscore.Internal.Correction.Weighted>
-0.7585

> <Gold.Rescore>
     Score     S(PLP)   S(hbond)     S(cho)   S(metal)  DE(clash)   DE(tors)     intcor
     18.60     -15.67       1.73       0.00       0.00       0.14       1.07       ----

> <Gold.PLP.Fitness>
18.5982

> <Gold.PLP.PLP>
-15.6742

> <Gold.PLP.part.hbond>
-2.5102

> <Gold.PLP.part.metal>
0.0000

> <Gold.PLP.part.buried>
-3.6379

> <Gold.PLP.part.nonpolar>
-19.0248

> <Gold.PLP.part.repulsive>
9.1255

> <Gold.PLP.ligand.clash>
0.1396

> <Gold.PLP.ligand.torsion>
1.0653

> <Gold.PLP.Chemscore.Hbond>
1.7314

> <Gold.PLP.Chemscore.CHOScore>
0.0000

> <Gold.PLP.Chemscore.Metal>
0.0000

> <Gold.Chemscore.Hbonds>
donor molecule, donor type, donor heavy atom, donor atom, acceptor molecule, acceptor atom, score
      P1  H 11669 11729       L1    17  0.36
      P1  H 19321 19379       L1    11  0.06

> <Gold.PLP.Chemscore.Internal.Correction>
   9.000000E+99

#       Name:                CT1002167954
#       Creating user name   hitesit
#       Creation time:       Sun Apr 16 22:53:05 2023


#       File generated by GOLD software.
#

@<TRIPOS>MOLECULE
CT1002167954|ligand_prepared|mol2|1|dock9
    29    30     1
SMALL
NO_CHARGES


@<TRIPOS>ATOM
      1 C1         208.0222  19.4045  71.0014 C.3            1 RES1               0.0000
      2 C2         206.9328  20.4959  71.0310 C.ar           1 RES1               0.0000
      3 C3         207.3012  18.0742  71.1983 C.2            1 RES1               0.0000
      4 C4         208.7239  19.5385  69.6545 C.2            1 RES1               0.0000
      5 C5         209.0876  19.5549  72.1122 C.3            1 RES1               0.0000
      6 C6         206.0168  20.6112  69.9897 C.ar           1 RES1               0.0000
      7 C7         206.8298  21.3914  72.0922 C.ar           1 RES1               0.0000
      8 N8         207.1675  17.2612  70.1115 N.am           1 RES1               0.0000
      9 O9         206.8227  17.7608  72.2813 O.2            1 RES1               0.0000
     10 N10        208.5987  18.5081  68.7599 N.am           1 RES1               0.0000
     11 O11        209.3703  20.5344  69.3533 O.2            1 RES1               0.0000
     12 C12        210.2460  18.5778  71.9870 C.3            1 RES1               0.0000
     13 C13        205.0316  21.5845  70.0098 C.ar           1 RES1               0.0000
     14 C14        205.8440  22.3642  72.1102 C.ar           1 RES1               0.0000
     15 C15        207.8270  17.3889  68.9155 C.2            1 RES1               0.0000
     16 C16        204.9442  22.4613  71.0702 C.ar           1 RES1               0.0000
     17 O17        207.7222  16.5318  68.0429 O.2            1 RES1               0.0000
     18 H18        209.4837  20.5775  72.0855 H              1 RES1               0.0000
     19 H19        208.6052  19.4075  73.0864 H              1 RES1               0.0000
     20 H20        206.0715  19.9317  69.1457 H              1 RES1               0.0000
     21 H21        207.5275  21.3344  72.9208 H              1 RES1               0.0000
     22 H22        206.5168  16.4867  70.1958 H              1 RES1               0.0000
     23 H23        209.1302  18.5821  67.8983 H              1 RES1               0.0000
     24 H24        210.9642  18.7261  72.7907 H              1 RES1               0.0000
     25 H25        209.8910  17.5505  72.0350 H              1 RES1               0.0000
     26 H26        210.7643  18.7135  71.0400 H              1 RES1               0.0000
     27 H27        204.3268  21.6576  69.1882 H              1 RES1               0.0000
     28 H28        205.7793  23.0525  72.9465 H              1 RES1               0.0000
     29 H29        204.1722  23.2234  71.0859 H              1 RES1               0.0000
@<TRIPOS>BOND
    1    1    2 1     
    2    1    3 1     
    3    1    4 1     
    4    1    5 1     
    5    2    6 ar    
    6    2    7 ar    
    7    3    8 1     
    8    3    9 2     
    9    4   10 1     
   10    4   11 2     
   11    5   12 1     
   12    5   18 1     
   13    5   19 1     
   14    6   13 ar    
   15    6   20 1     
   16    7   14 ar    
   17    7   21 1     
   18    8   15 1     
   19    8   22 1     
   20   10   15 1     
   21   10   23 1     
   22   12   24 1     
   23   12   25 1     
   24   12   26 1     
   25   13   16 ar    
   26   13   27 1     
   27   14   16 ar    
   28   14   28 1     
   29   15   17 2     
   30   16   29 1     
@<TRIPOS>SUBSTRUCTURE
      1 RES1           1
@<TRIPOS>SET
DONOR_HYDROGENS      STATIC     ATOMS    <user>   **** ""
2 22 23
ATOM$RED        STATIC     ATOMS    COLORGROUP SYSTEM
2 22 23
@<TRIPOS>COMMENT
> <Gold.Version>
2022.3.0

> <Gold.Id.Protein>
unknown|4v3u_clean|pdb

> <Gold.Protein.RotatedTorsions>
[  563  526  525  524 ] final   -1.23 input   59.98 | X-H torsion
[  717  667  668  669 ] final   15.22 input  100.61 | X-H torsion
[ 26073 26019 26018 26016 ] final  -57.35 input   60.01 | X-H torsion
[ 27142 27085 27084 27080 ] final -127.08 input   60.01 | X-H torsion
[  795  758  759  760 ] final  110.44 input  102.90 | X-H torsion
[ 18483 18438 18437 18435 ] final  -44.22 input   59.97 | X-H torsion
[ 18292 18264 18263 18260 ] final  -86.79 input   59.98 | X-H torsion
[ 10113 10080 10079 10076 ] final   63.81 input   60.03 | X-H torsion
[ 16984 16930 16929 16927 ] final   97.81 input   60.03 | X-H torsion
[ 11433 11400 11399 11396 ] final   85.41 input   59.99 | X-H torsion
[ 27144 27087 27086 27084 ] final   62.43 input   60.02 | X-H torsion
[ 27201  670  669  668 ] final   97.27 input    0.00 | X-H torsion

> <Gold.Protein.ActiveResidues>
 LYS309  TRP311  GLU312  MET341  HIS342  TRP414  ALA417  ARG419  CYS420  VAL421 
 GLY422  ARG423  SER462  ALA463  SER482  GLN483  LEU484  ILE485  ARG486  ALA502 
 TRP566  TYR567  LEU569  PRO570  ALA571  VAL572  SER573  ASN574  MET575  PHE589 
 SER590  GLY591  TRP592  TYR593  MET594  GLU597  ILE598  ARG601  ASP602  ASP605 
 ARG608  TRP683  HIS697  GLU699  TYR711  HEM750  H4B760 

> <Gold.Protein.RotatedAtoms>
  216.6319   11.1942   66.1879 H   0  0  0  0  0  0  0  0  0  0  0  0  # atno 563  bound_to 526 
  215.8432   11.7327   67.5431 H   0  0  0  0  0  0  0  0  0  0  0  0  # atno 564  bound_to 526 
  216.3912   10.1696   67.4679 H   0  0  0  0  0  0  0  0  0  0  0  0  # atno 565  bound_to 526 
  208.7922    9.4807   66.0223 H   0  0  0  0  0  0  0  0  0  0  0  0  # atno 717  bound_to 667 
  207.8324    9.6972   67.5214 H   0  0  0  0  0  0  0  0  0  0  0  0  # atno 795  bound_to 758 
  204.8630   39.1777   69.6409 H   0  0  0  0  0  0  0  0  0  0  0  0  # atno 10113 bound_to 10080
  214.0787   23.3024   74.8930 H   0  0  0  0  0  0  0  0  0  0  0  0  # atno 11433 bound_to 11400
  207.2141   25.0748   77.0332 H   0  0  0  0  0  0  0  0  0  0  0  0  # atno 16984 bound_to 16930
  210.7402   36.8161   73.7023 H   0  0  0  0  0  0  0  0  0  0  0  0  # atno 18292 bound_to 18264
  205.6110   25.7142   75.7408 H   0  0  0  0  0  0  0  0  0  0  0  0  # atno 18483 bound_to 18438
  212.0768   22.2212   63.7710 H   0  0  0  0  0  0  0  0  0  0  0  0  # atno 26073 bound_to 26019
  206.6658   14.2870   64.3503 H   0  0  0  0  0  0  0  0  0  0  0  0  # atno 27142 bound_to 27085
  208.1553   15.8007   60.7032 H   0  0  0  0  0  0  0  0  0  0  0  0  # atno 27144 bound_to 27087
  210.0927   10.1006   65.0317 LP  0  0  0  0  0  0  0  0  0  0  0  0  # atno 27200 bound_to 667 
  209.5878   11.8372   69.8524 LP  0  0  0  0  0  0  0  0  0  0  0  0  # atno 27201 bound_to 670 
  210.7359   10.5414   69.7991 LP  0  0  0  0  0  0  0  0  0  0  0  0  # atno 27202 bound_to 670 
  212.0830   22.6161   62.1922 LP  0  0  0  0  0  0  0  0  0  0  0  0  # atno 27208 bound_to 26019
  212.0017   23.7856   63.3290 LP  0  0  0  0  0  0  0  0  0  0  0  0  # atno 27209 bound_to 26019
  205.4827   14.0082   63.2685 LP  0  0  0  0  0  0  0  0  0  0  0  0  # atno 27212 bound_to 27085
  205.3400   15.2305   64.3419 LP  0  0  0  0  0  0  0  0  0  0  0  0  # atno 27213 bound_to 27085
  209.2220   10.3063   68.3935 LP  0  0  0  0  0  0  0  0  0  0  0  0  # atno 27214 bound_to 758 
  205.8472   26.7510   76.9725 LP  0  0  0  0  0  0  0  0  0  0  0  0  # atno 27251 bound_to 18438
  206.5728   27.0101   75.5327 LP  0  0  0  0  0  0  0  0  0  0  0  0  # atno 27252 bound_to 18438
  209.4507   36.7229   74.6906 LP  0  0  0  0  0  0  0  0  0  0  0  0  # atno 27253 bound_to 18264
  209.2401   36.9654   73.0895 LP  0  0  0  0  0  0  0  0  0  0  0  0  # atno 27254 bound_to 18264
  205.8260   37.8788   69.4571 LP  0  0  0  0  0  0  0  0  0  0  0  0  # atno 27255 bound_to 10080
  205.3499   38.7370   68.1519 LP  0  0  0  0  0  0  0  0  0  0  0  0  # atno 27256 bound_to 10080
  208.4296   24.5580   77.9837 LP  0  0  0  0  0  0  0  0  0  0  0  0  # atno 27261 bound_to 16930
  208.6514   25.8366   76.9925 LP  0  0  0  0  0  0  0  0  0  0  0  0  # atno 27262 bound_to 16930
  215.5127   23.2139   75.6570 LP  0  0  0  0  0  0  0  0  0  0  0  0  # atno 27269 bound_to 11400
  214.9521   21.9316   74.8156 LP  0  0  0  0  0  0  0  0  0  0  0  0  # atno 27270 bound_to 11400

> <Gold.Score>
     Fitness  S(hb_ext) S(vdw_ext)  S(hb_int)    S(int)      intcor
     34.10       4.89      21.26       0.00      -0.03      -0.76

> <Gold.Goldscore.Fitness>
34.0967

> <Gold.Goldscore.Internal.Vdw>
-0.3512

> <Gold.Goldscore.Internal.Torsion>
-0.4359

> <Gold.Goldscore.External.Vdw>
21.2621

> <Gold.Goldscore.Internal.HBond>
0.0000

> <Gold.Goldscore.External.HBond>
4.8908

> <Gold.Goldscore.Internal.Correction>
-0.7576

> <Gold.Goldscore.Hbonds>
donor molecule, donor type, donor heavy atom, donor atom, acceptor molecule, acceptor atom, score
      P1  H 27079 27165       L1    17  0.01
      P1  H 18901 18946       L1    17  0.35
      P1  H 19320 19378       L1     9  0.39
      L1  H     8    22       P1 19170  0.08

> <Gold.Goldscore.Internal.Vdw.Weighted>
-0.3512

> <Gold.Goldscore.Internal.Torsion.Weighted>
-0.4359

> <Gold.Goldscore.External.Vdw.Weighted>
29.2354

> <Gold.Goldscore.Internal.HBond.Weighted>
0.0000

> <Gold.Goldscore.External.HBond.Weighted>
4.8908

> <Gold.Goldscore.Internal.Correction.Weighted>
-0.7576

> <Gold.Rescore>
     Score     S(PLP)   S(hbond)     S(cho)   S(metal)  DE(clash)   DE(tors)     intcor
     28.48     -24.29       1.40       0.00       0.00       0.00       0.01       ----

> <Gold.PLP.Fitness>
28.4758

> <Gold.PLP.PLP>
-24.2873

> <Gold.PLP.part.hbond>
-2.2129

> <Gold.PLP.part.metal>
0.0000

> <Gold.PLP.part.buried>
-4.9723

> <Gold.PLP.part.nonpolar>
-19.0556

> <Gold.PLP.part.repulsive>
1.9738

> <Gold.PLP.ligand.clash>
0.0000

> <Gold.PLP.ligand.torsion>
0.0097

> <Gold.PLP.Chemscore.Hbond>
1.4026

> <Gold.PLP.Chemscore.CHOScore>
0.0000

> <Gold.PLP.Chemscore.Metal>
0.0000

> <Gold.Chemscore.Hbonds>
donor molecule, donor type, donor heavy atom, donor atom, acceptor molecule, acceptor atom, score
      L1  H     8    22       P1 19170  0.06
      P1  H 18901 18946       L1    17  0.49
      P1  H 19320 19378       L1     9  0.83

> <Gold.PLP.Chemscore.Internal.Correction>
   9.000000E+99

#       Name:                CT1002167954
#       Creating user name   hitesit
#       Creation time:       Sun Apr 16 22:53:01 2023


#       File generated by GOLD software.
#

@<TRIPOS>MOLECULE
CT1002167954|ligand_prepared|mol2|1|dock3
    29    30     1
SMALL
NO_CHARGES


@<TRIPOS>ATOM
      1 C1         207.2352  22.6111  71.2885 C.3            1 RES1               0.0000
      2 C2         208.1510  23.6102  70.5524 C.ar           1 RES1               0.0000
      3 C3         208.1350  21.8229  72.2357 C.2            1 RES1               0.0000
      4 C4         206.1711  23.4462  71.9920 C.2            1 RES1               0.0000
      5 C5         206.5167  21.6139  70.3500 C.3            1 RES1               0.0000
      6 C6         208.9765  23.1841  69.5162 C.ar           1 RES1               0.0000
      7 C7         208.1793  24.9592  70.8959 C.ar           1 RES1               0.0000
      8 N8         208.0521  22.1054  73.5674 N.am           1 RES1               0.0000
      9 O9         208.9335  20.9939  71.8168 O.2            1 RES1               0.0000
     10 N10        206.1601  23.4501  73.3622 N.am           1 RES1               0.0000
     11 O11        205.3526  24.1141  71.3722 O.2            1 RES1               0.0000
     12 C12        205.4321  20.7986  71.0364 C.3            1 RES1               0.0000
     13 C13        209.7984  24.0747  68.8456 C.ar           1 RES1               0.0000
     14 C14        209.0021  25.8482  70.2241 C.ar           1 RES1               0.0000
     15 C15        207.0715  22.8420  74.1819 C.2            1 RES1               0.0000
     16 C16        209.8114  25.4073  69.1987 C.ar           1 RES1               0.0000
     17 O17        207.0267  22.9363  75.4051 O.2            1 RES1               0.0000
     18 H18        206.0667  22.1719  69.5196 H              1 RES1               0.0000
     19 H19        207.2608  20.9271  69.9281 H              1 RES1               0.0000
     20 H20        208.9816  22.1387  69.2259 H              1 RES1               0.0000
     21 H21        207.5519  25.3284  71.7000 H              1 RES1               0.0000
     22 H22        208.7872  21.7349  74.1612 H              1 RES1               0.0000
     23 H23        205.4022  23.9528  73.8130 H              1 RES1               0.0000
     24 H24        204.9602  20.1152  70.3335 H              1 RES1               0.0000
     25 H25        205.8489  20.2113  71.8520 H              1 RES1               0.0000
     26 H26        204.6618  21.4488  71.4460 H              1 RES1               0.0000
     27 H27        210.4344  23.7224  68.0403 H              1 RES1               0.0000
     28 H28        209.0096  26.8960  70.5058 H              1 RES1               0.0000
     29 H29        210.4550  26.1048  68.6730 H              1 RES1               0.0000
@<TRIPOS>BOND
    1    1    2 1     
    2    1    3 1     
    3    1    4 1     
    4    1    5 1     
    5    2    6 ar    
    6    2    7 ar    
    7    3    8 1     
    8    3    9 2     
    9    4   10 1     
   10    4   11 2     
   11    5   12 1     
   12    5   18 1     
   13    5   19 1     
   14    6   13 ar    
   15    6   20 1     
   16    7   14 ar    
   17    7   21 1     
   18    8   15 1     
   19    8   22 1     
   20   10   15 1     
   21   10   23 1     
   22   12   24 1     
   23   12   25 1     
   24   12   26 1     
   25   13   16 ar    
   26   13   27 1     
   27   14   16 ar    
   28   14   28 1     
   29   15   17 2     
   30   16   29 1     
@<TRIPOS>SUBSTRUCTURE
      1 RES1           1
@<TRIPOS>SET
DONOR_HYDROGENS      STATIC     ATOMS    <user>   **** ""
2 22 23
ATOM$RED        STATIC     ATOMS    COLORGROUP SYSTEM
2 22 23
@<TRIPOS>COMMENT
> <Gold.Version>
2022.3.0

> <Gold.Id.Protein>
unknown|4v3u_clean|pdb

> <Gold.Protein.RotatedTorsions>
[  563  526  525  524 ] final  129.95 input   59.98 | X-H torsion
[  717  667  668  669 ] final -139.09 input  100.61 | X-H torsion
[ 26073 26019 26018 26016 ] final -155.39 input   60.01 | X-H torsion
[ 27142 27085 27084 27080 ] final    7.11 input   60.01 | X-H torsion
[  795  758  759  760 ] final  141.99 input  102.90 | X-H torsion
[ 18483 18438 18437 18435 ] final  -49.91 input   59.97 | X-H torsion
[ 18292 18264 18263 18260 ] final  -85.35 input   59.98 | X-H torsion
[ 10113 10080 10079 10076 ] final -155.99 input   60.03 | X-H torsion
[ 16984 16930 16929 16927 ] final  120.62 input   60.03 | X-H torsion
[ 11433 11400 11399 11396 ] final   31.87 input   59.99 | X-H torsion
[ 27144 27087 27086 27084 ] final -117.18 input   60.02 | X-H torsion
[ 27201  670  669  668 ] final -132.30 input    0.00 | X-H torsion

> <Gold.Protein.ActiveResidues>
 LYS309  TRP311  GLU312  MET341  HIS342  TRP414  ALA417  ARG419  CYS420  VAL421 
 GLY422  ARG423  SER462  ALA463  SER482  GLN483  LEU484  ILE485  ARG486  ALA502 
 TRP566  TYR567  LEU569  PRO570  ALA571  VAL572  SER573  ASN574  MET575  PHE589 
 SER590  GLY591  TRP592  TYR593  MET594  GLU597  ILE598  ARG601  ASP602  ASP605 
 ARG608  TRP683  HIS697  GLU699  TYR711  HEM750  H4B760 

> <Gold.Protein.RotatedAtoms>
  215.8248   11.6047   67.6771 H   0  0  0  0  0  0  0  0  0  0  0  0  # atno 563  bound_to 526 
  216.4770   10.1256   67.3092 H   0  0  0  0  0  0  0  0  0  0  0  0  # atno 564  bound_to 526 
  216.5640   11.3667   66.2132 H   0  0  0  0  0  0  0  0  0  0  0  0  # atno 565  bound_to 526 
  210.2773    9.8040   65.2035 H   0  0  0  0  0  0  0  0  0  0  0  0  # atno 717  bound_to 667 
  207.7107   10.1410   67.6690 H   0  0  0  0  0  0  0  0  0  0  0  0  # atno 795  bound_to 758 
  205.5428   38.4711   68.1785 H   0  0  0  0  0  0  0  0  0  0  0  0  # atno 10113 bound_to 10080
  214.6488   23.6970   75.3730 H   0  0  0  0  0  0  0  0  0  0  0  0  # atno 11433 bound_to 11400
  207.3323   25.3654   76.8367 H   0  0  0  0  0  0  0  0  0  0  0  0  # atno 16984 bound_to 16930
  210.7369   36.8196   73.6793 H   0  0  0  0  0  0  0  0  0  0  0  0  # atno 18292 bound_to 18264
  205.5717   25.7033   75.8242 H   0  0  0  0  0  0  0  0  0  0  0  0  # atno 18483 bound_to 18438
  212.0984   22.3000   62.3596 H   0  0  0  0  0  0  0  0  0  0  0  0  # atno 26073 bound_to 26019
  205.1925   15.1663   64.1745 H   0  0  0  0  0  0  0  0  0  0  0  0  # atno 27142 bound_to 27085
  206.5375   16.1340   59.8218 H   0  0  0  0  0  0  0  0  0  0  0  0  # atno 27144 bound_to 27087
  208.6450    9.7854   65.8298 LP  0  0  0  0  0  0  0  0  0  0  0  0  # atno 27200 bound_to 667 
  210.1280   10.3946   70.1681 LP  0  0  0  0  0  0  0  0  0  0  0  0  # atno 27201 bound_to 670 
  210.1957   11.9841   69.4834 LP  0  0  0  0  0  0  0  0  0  0  0  0  # atno 27202 bound_to 670 
  212.0072   23.8057   62.9704 LP  0  0  0  0  0  0  0  0  0  0  0  0  # atno 27208 bound_to 26019
  212.0557   22.5168   63.9720 LP  0  0  0  0  0  0  0  0  0  0  0  0  # atno 27209 bound_to 26019
  206.6248   14.4638   64.4952 LP  0  0  0  0  0  0  0  0  0  0  0  0  # atno 27212 bound_to 27085
  205.6816   13.8895   63.2922 LP  0  0  0  0  0  0  0  0  0  0  0  0  # atno 27213 bound_to 27085
  209.3399    9.8763   68.2505 LP  0  0  0  0  0  0  0  0  0  0  0  0  # atno 27214 bound_to 758 
  205.9031   26.8241   76.9563 LP  0  0  0  0  0  0  0  0  0  0  0  0  # atno 27251 bound_to 18438
  206.5565   26.9479   75.4649 LP  0  0  0  0  0  0  0  0  0  0  0  0  # atno 27252 bound_to 18438
  209.4726   36.7208   74.6992 LP  0  0  0  0  0  0  0  0  0  0  0  0  # atno 27253 bound_to 18264
  209.2215   36.9639   73.1040 LP  0  0  0  0  0  0  0  0  0  0  0  0  # atno 27254 bound_to 18264
  204.7929   39.3158   69.3499 LP  0  0  0  0  0  0  0  0  0  0  0  0  # atno 27255 bound_to 10080
  205.6983   38.0116   69.7319 LP  0  0  0  0  0  0  0  0  0  0  0  0  # atno 27256 bound_to 10080
  208.0806   24.4337   77.9412 LP  0  0  0  0  0  0  0  0  0  0  0  0  # atno 27261 bound_to 16930
  208.8813   25.6681   77.2329 LP  0  0  0  0  0  0  0  0  0  0  0  0  # atno 27262 bound_to 16930
  215.6507   22.4152   75.4038 LP  0  0  0  0  0  0  0  0  0  0  0  0  # atno 27269 bound_to 11400
  214.2400   22.3329   74.5855 LP  0  0  0  0  0  0  0  0  0  0  0  0  # atno 27270 bound_to 11400

> <Gold.Score>
     Fitness  S(hb_ext) S(vdw_ext)  S(hb_int)    S(int)      intcor
     33.98       3.57      22.95       0.00      -1.14      -0.76

> <Gold.Goldscore.Fitness>
33.9759

> <Gold.Goldscore.Internal.Vdw>
-1.3775

> <Gold.Goldscore.Internal.Torsion>
-0.5318

> <Gold.Goldscore.External.Vdw>
22.9478

> <Gold.Goldscore.Internal.HBond>
0.0000

> <Gold.Goldscore.External.HBond>
3.5670

> <Gold.Goldscore.Internal.Correction>
-0.7650

> <Gold.Goldscore.Hbonds>
donor molecule, donor type, donor heavy atom, donor atom, acceptor molecule, acceptor atom, score
      P1  H 11446 11497       L1    17  0.15
      P1  H 19321 19379       L1    17  0.54

> <Gold.Goldscore.Internal.Vdw.Weighted>
-1.3775

> <Gold.Goldscore.Internal.Torsion.Weighted>
-0.5318

> <Gold.Goldscore.External.Vdw.Weighted>
31.5533

> <Gold.Goldscore.Internal.HBond.Weighted>
0.0000

> <Gold.Goldscore.External.HBond.Weighted>
3.5670

> <Gold.Goldscore.Internal.Correction.Weighted>
-0.7650

> <Gold.Rescore>
     Score     S(PLP)   S(hbond)     S(cho)   S(metal)  DE(clash)   DE(tors)     intcor
     21.73     -20.11       1.10       0.00       0.00       1.44       0.13       ----

> <Gold.PLP.Fitness>
21.7267

> <Gold.PLP.PLP>
-20.1129

> <Gold.PLP.part.hbond>
-4.0978

> <Gold.PLP.part.metal>
0.0000

> <Gold.PLP.part.buried>
-0.9525

> <Gold.PLP.part.nonpolar>
-19.8708

> <Gold.PLP.part.repulsive>
4.4277

> <Gold.PLP.ligand.clash>
1.4384

> <Gold.PLP.ligand.torsion>
0.1281

> <Gold.PLP.Chemscore.Hbond>
1.1028

> <Gold.PLP.Chemscore.CHOScore>
0.0000

> <Gold.PLP.Chemscore.Metal>
0.0000

> <Gold.Chemscore.Hbonds>
donor molecule, donor type, donor heavy atom, donor atom, acceptor molecule, acceptor atom, score
      P1  H 19321 19379       L1    17  0.46

> <Gold.PLP.Chemscore.Internal.Correction>
   9.000000E+99

