#       Name:                CT1002167954
#       Creating user name   hitesit
#       Creation time:       Sun Apr 16 22:53:01 2023


#       File generated by GOLD software.
#

@<TRIPOS>MOLECULE
CT1002167954|ligand_prepared|mol2|1|dock4
    29    30     1
SMALL
NO_CHARGES


@<TRIPOS>ATOM
      1 C1         207.3296  23.2136  71.6515 C.3            1 RES1               0.0000
      2 C2         208.5943  23.8634  71.0539 C.ar           1 RES1               0.0000
      3 C3         207.7984  21.9627  72.3890 C.2            1 RES1               0.0000
      4 C4         206.6946  24.2662  72.5533 C.2            1 RES1               0.0000
      5 C5         206.2821  22.7962  70.5932 C.3            1 RES1               0.0000
      6 C6         208.4925  24.9553  70.1970 C.ar           1 RES1               0.0000
      7 C7         209.8674  23.3849  71.3519 C.ar           1 RES1               0.0000
      8 N8         207.8113  22.0005  73.7522 N.am           1 RES1               0.0000
      9 O9         208.1883  20.9721  71.7831 O.2            1 RES1               0.0000
     10 N10        206.6559  24.0186  73.9005 N.am           1 RES1               0.0000
     11 O11        206.2423  25.3151  72.1113 O.2            1 RES1               0.0000
     12 C12        205.0367  22.1537  71.1834 C.3            1 RES1               0.0000
     13 C13        209.6226  25.5491  69.6597 C.ar           1 RES1               0.0000
     14 C14        210.9962  23.9800  70.8133 C.ar           1 RES1               0.0000
     15 C15        207.2131  22.9474  74.5441 C.2            1 RES1               0.0000
     16 C16        210.8750  25.0622  69.9678 C.ar           1 RES1               0.0000
     17 O17        207.1846  22.8218  75.7650 O.2            1 RES1               0.0000
     18 H18        205.9843  23.6840  70.0218 H              1 RES1               0.0000
     19 H19        206.7473  22.0889  69.8955 H              1 RES1               0.0000
     20 H20        207.5151  25.3507  69.9412 H              1 RES1               0.0000
     21 H21        209.9867  22.5339  72.0138 H              1 RES1               0.0000
     22 H22        208.3121  21.2559  74.2266 H              1 RES1               0.0000
     23 H23        206.1663  24.6956  74.4770 H              1 RES1               0.0000
     24 H24        204.3348  21.8801  70.3984 H              1 RES1               0.0000
     25 H25        205.2930  21.2532  71.7378 H              1 RES1               0.0000
     26 H26        204.5345  22.8389  71.8633 H              1 RES1               0.0000
     27 H27        209.5217  26.3997  68.9937 H              1 RES1               0.0000
     28 H28        211.9799  23.5932  71.0580 H              1 RES1               0.0000
     29 H29        211.7601  25.5278  69.5470 H              1 RES1               0.0000
@<TRIPOS>BOND
    1    1    2 1     
    2    1    3 1     
    3    1    4 1     
    4    1    5 1     
    5    2    6 ar    
    6    2    7 ar    
    7    3    8 1     
    8    3    9 2     
    9    4   10 1     
   10    4   11 2     
   11    5   12 1     
   12    5   18 1     
   13    5   19 1     
   14    6   13 ar    
   15    6   20 1     
   16    7   14 ar    
   17    7   21 1     
   18    8   15 1     
   19    8   22 1     
   20   10   15 1     
   21   10   23 1     
   22   12   24 1     
   23   12   25 1     
   24   12   26 1     
   25   13   16 ar    
   26   13   27 1     
   27   14   16 ar    
   28   14   28 1     
   29   15   17 2     
   30   16   29 1     
@<TRIPOS>SUBSTRUCTURE
      1 RES1           1
@<TRIPOS>SET
DONOR_HYDROGENS      STATIC     ATOMS    <user>   **** ""
2 22 23
ATOM$RED        STATIC     ATOMS    COLORGROUP SYSTEM
2 22 23
@<TRIPOS>COMMENT
> <Gold.Version>
2022.3.0

> <Gold.Id.Protein>
unknown|4v3u_clean|pdb

> <Gold.Protein.RotatedTorsions>
[  563  526  525  524 ] final  168.93 input   59.98 | X-H torsion
[  717  667  668  669 ] final  136.67 input  100.61 | X-H torsion
[ 26073 26019 26018 26016 ] final   -9.92 input   60.01 | X-H torsion
[ 27142 27085 27084 27080 ] final  -13.69 input   60.01 | X-H torsion
[  795  758  759  760 ] final   67.85 input  102.90 | X-H torsion
[ 18483 18438 18437 18435 ] final -118.76 input   59.97 | X-H torsion
[ 18292 18264 18263 18260 ] final  165.90 input   59.98 | X-H torsion
[ 10113 10080 10079 10076 ] final  179.96 input   60.03 | X-H torsion
[ 16984 16930 16929 16927 ] final  175.05 input   60.03 | X-H torsion
[ 11433 11400 11399 11396 ] final  103.28 input   59.99 | X-H torsion
[ 27144 27087 27086 27084 ] final    0.62 input   60.02 | X-H torsion
[ 27201  670  669  668 ] final  130.00 input    0.00 | X-H torsion

> <Gold.Protein.ActiveResidues>
 LYS309  TRP311  GLU312  MET341  HIS342  TRP414  ALA417  ARG419  CYS420  VAL421 
 GLY422  ARG423  SER462  ALA463  SER482  GLN483  LEU484  ILE485  ARG486  ALA502 
 TRP566  TYR567  LEU569  PRO570  ALA571  VAL572  SER573  ASN574  MET575  PHE589 
 SER590  GLY591  TRP592  TYR593  MET594  GLU597  ILE598  ARG601  ASP602  ASP605 
 ARG608  TRP683  HIS697  GLU699  TYR711  HEM750  H4B760 

> <Gold.Protein.RotatedAtoms>
  215.8964   11.0267   67.9394 H   0  0  0  0  0  0  0  0  0  0  0  0  # atno 563  bound_to 526 
  216.7036   10.2409   66.7232 H   0  0  0  0  0  0  0  0  0  0  0  0  # atno 564  bound_to 526 
  216.2657   11.8292   66.5373 H   0  0  0  0  0  0  0  0  0  0  0  0  # atno 565  bound_to 526 
  209.3417   10.5093   65.0096 H   0  0  0  0  0  0  0  0  0  0  0  0  # atno 717  bound_to 667 
  208.3094    9.2625   67.5355 H   0  0  0  0  0  0  0  0  0  0  0  0  # atno 795  bound_to 758 
  205.3142   38.7870   68.1679 H   0  0  0  0  0  0  0  0  0  0  0  0  # atno 10113 bound_to 10080
  214.0171   23.0534   74.7559 H   0  0  0  0  0  0  0  0  0  0  0  0  # atno 11433 bound_to 11400
  208.0250   25.8540   76.7157 H   0  0  0  0  0  0  0  0  0  0  0  0  # atno 16984 bound_to 16930
  209.6515   36.7050   74.7404 H   0  0  0  0  0  0  0  0  0  0  0  0  # atno 18292 bound_to 18264
  205.5015   26.1405   76.7856 H   0  0  0  0  0  0  0  0  0  0  0  0  # atno 18483 bound_to 18438
  212.0355   22.9258   64.0336 H   0  0  0  0  0  0  0  0  0  0  0  0  # atno 26073 bound_to 26019
  205.4262   15.2404   64.4072 H   0  0  0  0  0  0  0  0  0  0  0  0  # atno 27142 bound_to 27085
  207.6112   16.5594   60.9337 H   0  0  0  0  0  0  0  0  0  0  0  0  # atno 27144 bound_to 27087
  209.5570    9.0979   66.0189 LP  0  0  0  0  0  0  0  0  0  0  0  0  # atno 27200 bound_to 667 
  209.3905   11.4683   70.1037 LP  0  0  0  0  0  0  0  0  0  0  0  0  # atno 27201 bound_to 670 
  210.9332   10.9104   69.5478 LP  0  0  0  0  0  0  0  0  0  0  0  0  # atno 27202 bound_to 670 
  212.1045   22.0320   62.6753 LP  0  0  0  0  0  0  0  0  0  0  0  0  # atno 27208 bound_to 26019
  212.0219   23.6602   62.5814 LP  0  0  0  0  0  0  0  0  0  0  0  0  # atno 27209 bound_to 26019
  206.6745   14.2042   64.2806 LP  0  0  0  0  0  0  0  0  0  0  0  0  # atno 27212 bound_to 27085
  205.3965   14.0745   63.2724 LP  0  0  0  0  0  0  0  0  0  0  0  0  # atno 27213 bound_to 27085
  208.7598   10.7276   68.3798 LP  0  0  0  0  0  0  0  0  0  0  0  0  # atno 27214 bound_to 758 
  206.5025   27.2840   76.2041 LP  0  0  0  0  0  0  0  0  0  0  0  0  # atno 27251 bound_to 18438
  206.0279   26.0477   75.2487 LP  0  0  0  0  0  0  0  0  0  0  0  0  # atno 27252 bound_to 18438
  209.0896   36.9500   73.2330 LP  0  0  0  0  0  0  0  0  0  0  0  0  # atno 27253 bound_to 18264
  210.6972   36.8500   73.5020 LP  0  0  0  0  0  0  0  0  0  0  0  0  # atno 27254 bound_to 18264
  204.8775   39.1459   69.6939 LP  0  0  0  0  0  0  0  0  0  0  0  0  # atno 27255 bound_to 10080
  205.8440   37.8633   69.3985 LP  0  0  0  0  0  0  0  0  0  0  0  0  # atno 27256 bound_to 10080
  207.3577   24.5935   77.4991 LP  0  0  0  0  0  0  0  0  0  0  0  0  # atno 27261 bound_to 16930
  208.9066   25.0163   77.7969 LP  0  0  0  0  0  0  0  0  0  0  0  0  # atno 27262 bound_to 16930
  215.3246   23.4380   75.6450 LP  0  0  0  0  0  0  0  0  0  0  0  0  # atno 27269 bound_to 11400
  215.2022   21.9582   74.9656 LP  0  0  0  0  0  0  0  0  0  0  0  0  # atno 27270 bound_to 11400

> <Gold.Score>
     Fitness  S(hb_ext) S(vdw_ext)  S(hb_int)    S(int)      intcor
     37.33       6.99      23.50       0.00      -1.98      -0.76

> <Gold.Goldscore.Fitness>
37.3308

> <Gold.Goldscore.Internal.Vdw>
-2.3710

> <Gold.Goldscore.Internal.Torsion>
-0.3676

> <Gold.Goldscore.External.Vdw>
23.5035

> <Gold.Goldscore.Internal.HBond>
0.0000

> <Gold.Goldscore.External.HBond>
6.9935

> <Gold.Goldscore.Internal.Correction>
-0.7585

> <Gold.Goldscore.Hbonds>
donor molecule, donor type, donor heavy atom, donor atom, acceptor molecule, acceptor atom, score
      P1  H 11446 11497       L1    17  0.03
      P1  H 19321 19379       L1    17  1.00
      L1  H    10    23       P1 18438  0.47

> <Gold.Goldscore.Internal.Vdw.Weighted>
-2.3710

> <Gold.Goldscore.Internal.Torsion.Weighted>
-0.3676

> <Gold.Goldscore.External.Vdw.Weighted>
32.3174

> <Gold.Goldscore.Internal.HBond.Weighted>
0.0000

> <Gold.Goldscore.External.HBond.Weighted>
6.9935

> <Gold.Goldscore.Internal.Correction.Weighted>
-0.7585

> <Gold.Rescore>
     Score     S(PLP)   S(hbond)     S(cho)   S(metal)  DE(clash)   DE(tors)     intcor
     25.02     -23.13       1.13       0.00       0.00       1.31       0.09       ----

> <Gold.PLP.Fitness>
25.0193

> <Gold.PLP.PLP>
-23.1316

> <Gold.PLP.part.hbond>
-3.5174

> <Gold.PLP.part.metal>
0.0000

> <Gold.PLP.part.buried>
-0.9552

> <Gold.PLP.part.nonpolar>
-21.3540

> <Gold.PLP.part.repulsive>
2.1897

> <Gold.PLP.ligand.clash>
1.3072

> <Gold.PLP.ligand.torsion>
0.0935

> <Gold.PLP.Chemscore.Hbond>
1.1273

> <Gold.PLP.Chemscore.CHOScore>
0.0000

> <Gold.PLP.Chemscore.Metal>
0.0000

> <Gold.Chemscore.Hbonds>
donor molecule, donor type, donor heavy atom, donor atom, acceptor molecule, acceptor atom, score
      P1  H 19321 19379       L1    17  0.99

> <Gold.PLP.Chemscore.Internal.Correction>
   9.000000E+99

