#       Name:                CT1002167954
#       Creating user name   hitesit
#       Creation time:       Sun Apr 16 22:53:04 2023


#       File generated by GOLD software.
#

@<TRIPOS>MOLECULE
CT1002167954|ligand_prepared|mol2|1|dock7
    29    30     1
SMALL
NO_CHARGES


@<TRIPOS>ATOM
      1 C1         207.2622  23.0847  72.3271 C.3            1 RES1               0.0000
      2 C2         207.8649  24.4995  72.4447 C.ar           1 RES1               0.0000
      3 C3         207.9108  22.4429  71.1041 C.2            1 RES1               0.0000
      4 C4         207.5754  22.3770  73.6408 C.2            1 RES1               0.0000
      5 C5         205.7281  23.0733  72.1323 C.3            1 RES1               0.0000
      6 C6         207.1916  25.5012  73.1375 C.ar           1 RES1               0.0000
      7 C7         209.0922  24.8168  71.8689 C.ar           1 RES1               0.0000
      8 N8         208.8500  21.4780  71.3203 N.am           1 RES1               0.0000
      9 O9         207.6312  22.8058  69.9682 O.2            1 RES1               0.0000
     10 N10        208.4237  21.3014  73.6043 N.am           1 RES1               0.0000
     11 O11        207.1085  22.7514  74.7095 O.2            1 RES1               0.0000
     12 C12        205.1742  21.7229  71.7060 C.3            1 RES1               0.0000
     13 C13        207.7273  26.7732  73.2532 C.ar           1 RES1               0.0000
     14 C14        209.6260  26.0895  71.9856 C.ar           1 RES1               0.0000
     15 C15        209.0993  20.8388  72.5081 C.2            1 RES1               0.0000
     16 C16        208.9449  27.0681  72.6778 C.ar           1 RES1               0.0000
     17 O17        209.8876  19.8994  72.5654 O.2            1 RES1               0.0000
     18 H18        205.2503  23.3695  73.0743 H              1 RES1               0.0000
     19 H19        205.4630  23.8192  71.3729 H              1 RES1               0.0000
     20 H20        206.2311  25.2884  73.5949 H              1 RES1               0.0000
     21 H21        209.6453  24.0631  71.3188 H              1 RES1               0.0000
     22 H22        209.4197  21.2066  70.5252 H              1 RES1               0.0000
     23 H23        208.5644  20.7990  74.4750 H              1 RES1               0.0000
     24 H24        204.0941  21.7702  71.5835 H              1 RES1               0.0000
     25 H25        205.6091  21.4089  70.7594 H              1 RES1               0.0000
     26 H26        205.3977  20.9618  72.4508 H              1 RES1               0.0000
     27 H27        207.1866  27.5402  73.7978 H              1 RES1               0.0000
     28 H28        210.5843  26.3173  71.5306 H              1 RES1               0.0000
     29 H29        209.3645  28.0646  72.7689 H              1 RES1               0.0000
@<TRIPOS>BOND
    1    1    2 1     
    2    1    3 1     
    3    1    4 1     
    4    1    5 1     
    5    2    6 ar    
    6    2    7 ar    
    7    3    8 1     
    8    3    9 2     
    9    4   10 1     
   10    4   11 2     
   11    5   12 1     
   12    5   18 1     
   13    5   19 1     
   14    6   13 ar    
   15    6   20 1     
   16    7   14 ar    
   17    7   21 1     
   18    8   15 1     
   19    8   22 1     
   20   10   15 1     
   21   10   23 1     
   22   12   24 1     
   23   12   25 1     
   24   12   26 1     
   25   13   16 ar    
   26   13   27 1     
   27   14   16 ar    
   28   14   28 1     
   29   15   17 2     
   30   16   29 1     
@<TRIPOS>SUBSTRUCTURE
      1 RES1           1
@<TRIPOS>SET
DONOR_HYDROGENS      STATIC     ATOMS    <user>   **** ""
2 22 23
ATOM$RED        STATIC     ATOMS    COLORGROUP SYSTEM
2 22 23
@<TRIPOS>COMMENT
> <Gold.Version>
2022.3.0

> <Gold.Id.Protein>
unknown|4v3u_clean|pdb

> <Gold.Protein.RotatedTorsions>
[  563  526  525  524 ] final -179.92 input   59.98 | X-H torsion
[  717  667  668  669 ] final   75.13 input  100.61 | X-H torsion
[ 26073 26019 26018 26016 ] final  169.13 input   60.01 | X-H torsion
[ 27142 27085 27084 27080 ] final -165.70 input   60.01 | X-H torsion
[  795  758  759  760 ] final    0.04 input  102.90 | X-H torsion
[ 18483 18438 18437 18435 ] final  104.82 input   59.97 | X-H torsion
[ 18292 18264 18263 18260 ] final  -70.88 input   59.98 | X-H torsion
[ 10113 10080 10079 10076 ] final   92.43 input   60.03 | X-H torsion
[ 16984 16930 16929 16927 ] final  144.69 input   60.03 | X-H torsion
[ 11433 11400 11399 11396 ] final   63.90 input   59.99 | X-H torsion
[ 27144 27087 27086 27084 ] final -156.87 input   60.02 | X-H torsion
[ 27201  670  669  668 ] final  166.68 input    0.00 | X-H torsion

> <Gold.Protein.ActiveResidues>
 LYS309  TRP311  GLU312  MET341  HIS342  TRP414  ALA417  ARG419  CYS420  VAL421 
 GLY422  ARG423  SER462  ALA463  SER482  GLN483  LEU484  ILE485  ARG486  ALA502 
 TRP566  TYR567  LEU569  PRO570  ALA571  VAL572  SER573  ASN574  MET575  PHE589 
 SER590  GLY591  TRP592  TYR593  MET594  GLU597  ILE598  ARG601  ASP602  ASP605 
 ARG608  TRP683  HIS697  GLU699  TYR711  HEM750  H4B760 

> <Gold.Protein.RotatedAtoms>
  215.9527   10.8495   67.9437 H   0  0  0  0  0  0  0  0  0  0  0  0  # atno 563  bound_to 526 
  216.7370   10.3454   66.5730 H   0  0  0  0  0  0  0  0  0  0  0  0  # atno 564  bound_to 526 
  216.1760   11.9017   66.6832 H   0  0  0  0  0  0  0  0  0  0  0  0  # atno 565  bound_to 526 
  208.6603   10.1935   65.5160 H   0  0  0  0  0  0  0  0  0  0  0  0  # atno 717  bound_to 667 
  209.1835    9.3958   67.9840 H   0  0  0  0  0  0  0  0  0  0  0  0  # atno 795  bound_to 758 
  204.7912   39.3428   69.2144 H   0  0  0  0  0  0  0  0  0  0  0  0  # atno 10113 bound_to 10080
  214.2501   23.5382   75.0857 H   0  0  0  0  0  0  0  0  0  0  0  0  # atno 11433 bound_to 11400
  207.5859   25.6359   76.7146 H   0  0  0  0  0  0  0  0  0  0  0  0  # atno 16984 bound_to 16930
  210.6716   36.8548   73.4555 H   0  0  0  0  0  0  0  0  0  0  0  0  # atno 18292 bound_to 18264
  206.5630   27.2328   75.9478 H   0  0  0  0  0  0  0  0  0  0  0  0  # atno 18483 bound_to 18438
  212.0743   22.8354   62.1635 H   0  0  0  0  0  0  0  0  0  0  0  0  # atno 26073 bound_to 26019
  206.5346   13.8982   63.8867 H   0  0  0  0  0  0  0  0  0  0  0  0  # atno 27142 bound_to 27085
  206.8057   15.6087   59.5849 H   0  0  0  0  0  0  0  0  0  0  0  0  # atno 27144 bound_to 27087
  210.2212    9.4058   65.5252 LP  0  0  0  0  0  0  0  0  0  0  0  0  # atno 27200 bound_to 667 
  209.4606   10.9565   70.2774 LP  0  0  0  0  0  0  0  0  0  0  0  0  # atno 27201 bound_to 670 
  210.8631   11.4221   69.3741 LP  0  0  0  0  0  0  0  0  0  0  0  0  # atno 27202 bound_to 670 
  212.0021   23.7064   63.5364 LP  0  0  0  0  0  0  0  0  0  0  0  0  # atno 27208 bound_to 26019
  212.0852   22.0769   63.6034 LP  0  0  0  0  0  0  0  0  0  0  0  0  # atno 27209 bound_to 26019
  205.0794   14.4585   63.4214 LP  0  0  0  0  0  0  0  0  0  0  0  0  # atno 27212 bound_to 27085
  205.8755   15.1718   64.6559 LP  0  0  0  0  0  0  0  0  0  0  0  0  # atno 27213 bound_to 27085
  207.9128   10.5984   67.9452 LP  0  0  0  0  0  0  0  0  0  0  0  0  # atno 27214 bound_to 758 
  205.8635   25.8785   75.3784 LP  0  0  0  0  0  0  0  0  0  0  0  0  # atno 27251 bound_to 18438
  205.5977   26.3529   76.9182 LP  0  0  0  0  0  0  0  0  0  0  0  0  # atno 27252 bound_to 18438
  209.7029   36.7040   74.7544 LP  0  0  0  0  0  0  0  0  0  0  0  0  # atno 27253 bound_to 18264
  209.0569   36.9452   73.2741 LP  0  0  0  0  0  0  0  0  0  0  0  0  # atno 27254 bound_to 18264
  205.6311   38.0894   69.8244 LP  0  0  0  0  0  0  0  0  0  0  0  0  # atno 27255 bound_to 10080
  205.6170   38.3601   68.2141 LP  0  0  0  0  0  0  0  0  0  0  0  0  # atno 27256 bound_to 10080
  207.7161   24.4252   77.7939 LP  0  0  0  0  0  0  0  0  0  0  0  0  # atno 27261 bound_to 16930
  208.9903   25.4042   77.5031 LP  0  0  0  0  0  0  0  0  0  0  0  0  # atno 27262 bound_to 16930
  215.6526   22.8955   75.6032 LP  0  0  0  0  0  0  0  0  0  0  0  0  # atno 27269 bound_to 11400
  214.6397   22.0125   74.6754 LP  0  0  0  0  0  0  0  0  0  0  0  0  # atno 27270 bound_to 11400

> <Gold.Score>
     Fitness  S(hb_ext) S(vdw_ext)  S(hb_int)    S(int)      intcor
     34.81       3.45      23.53       0.00      -1.00      -0.76

> <Gold.Goldscore.Fitness>
34.8146

> <Gold.Goldscore.Internal.Vdw>
-1.1167

> <Gold.Goldscore.Internal.Torsion>
-0.6381

> <Gold.Goldscore.External.Vdw>
23.5336

> <Gold.Goldscore.Internal.HBond>
0.0000

> <Gold.Goldscore.External.HBond>
3.4523

> <Gold.Goldscore.Internal.Correction>
-0.7585

> <Gold.Goldscore.Hbonds>
donor molecule, donor type, donor heavy atom, donor atom, acceptor molecule, acceptor atom, score
      P1  H 11669 11729       L1    17  0.06
      P1  H 19320 19377       L1    11  0.02
      P1  H 11446 11497       L1    11  0.09
      P1  H 19321 19379       L1    11  0.47

> <Gold.Goldscore.Internal.Vdw.Weighted>
-1.1167

> <Gold.Goldscore.Internal.Torsion.Weighted>
-0.6381

> <Gold.Goldscore.External.Vdw.Weighted>
32.3586

> <Gold.Goldscore.Internal.HBond.Weighted>
0.0000

> <Gold.Goldscore.External.HBond.Weighted>
3.4523

> <Gold.Goldscore.Internal.Correction.Weighted>
-0.7585

> <Gold.Rescore>
     Score     S(PLP)   S(hbond)     S(cho)   S(metal)  DE(clash)   DE(tors)     intcor
     18.60     -15.67       1.73       0.00       0.00       0.14       1.07       ----

> <Gold.PLP.Fitness>
18.5982

> <Gold.PLP.PLP>
-15.6742

> <Gold.PLP.part.hbond>
-2.5102

> <Gold.PLP.part.metal>
0.0000

> <Gold.PLP.part.buried>
-3.6379

> <Gold.PLP.part.nonpolar>
-19.0248

> <Gold.PLP.part.repulsive>
9.1255

> <Gold.PLP.ligand.clash>
0.1396

> <Gold.PLP.ligand.torsion>
1.0653

> <Gold.PLP.Chemscore.Hbond>
1.7314

> <Gold.PLP.Chemscore.CHOScore>
0.0000

> <Gold.PLP.Chemscore.Metal>
0.0000

> <Gold.Chemscore.Hbonds>
donor molecule, donor type, donor heavy atom, donor atom, acceptor molecule, acceptor atom, score
      P1  H 11669 11729       L1    17  0.36
      P1  H 19321 19379       L1    11  0.06

> <Gold.PLP.Chemscore.Internal.Correction>
   9.000000E+99

