#       Name:                CT1002167954
#       Creating user name   hitesit
#       Creation time:       Sun Apr 16 22:53:05 2023


#       File generated by GOLD software.
#

@<TRIPOS>MOLECULE
CT1002167954|ligand_prepared|mol2|1|dock8
    29    30     1
SMALL
NO_CHARGES


@<TRIPOS>ATOM
      1 C1         207.6537  26.1927  71.3683 C.3            1 RES1               0.0000
      2 C2         206.8440  27.3958  70.8433 C.ar           1 RES1               0.0000
      3 C3         208.2582  26.6309  72.6990 C.2            1 RES1               0.0000
      4 C4         206.6695  25.0338  71.4837 C.2            1 RES1               0.0000
      5 C5         208.8007  25.7536  70.4286 C.3            1 RES1               0.0000
      6 C6         207.0145  27.8497  69.5388 C.ar           1 RES1               0.0000
      7 C7         205.9226  28.0592  71.6493 C.ar           1 RES1               0.0000
      8 N8         207.7134  26.1189  73.8396 N.am           1 RES1               0.0000
      9 O9         209.1730  27.4438  72.7484 O.2            1 RES1               0.0000
     10 N10        206.3918  24.5495  72.7351 N.am           1 RES1               0.0000
     11 O11        206.1195  24.5468  70.5036 O.2            1 RES1               0.0000
     12 C12        209.6997  24.6787  71.0191 C.3            1 RES1               0.0000
     13 C13        206.2881  28.9258  69.0566 C.ar           1 RES1               0.0000
     14 C14        205.1974  29.1353  71.1651 C.ar           1 RES1               0.0000
     15 C15        206.8456  25.0597  73.9208 C.2            1 RES1               0.0000
     16 C16        205.3788  29.5690  69.8691 C.ar           1 RES1               0.0000
     17 O17        206.5078  24.6031  75.0092 O.2            1 RES1               0.0000
     18 H18        208.3670  25.3770  69.4941 H              1 RES1               0.0000
     19 H19        209.4127  26.6308  70.1846 H              1 RES1               0.0000
     20 H20        207.7272  27.3576  68.8855 H              1 RES1               0.0000
     21 H21        205.7641  27.7360  72.6726 H              1 RES1               0.0000
     22 H22        207.9754  26.5649  74.7130 H              1 RES1               0.0000
     23 H23        205.7911  23.7329  72.7875 H              1 RES1               0.0000
     24 H24        210.4873  24.4073  70.3193 H              1 RES1               0.0000
     25 H25        210.1676  25.0286  71.9369 H              1 RES1               0.0000
     26 H26        209.1281  23.7822  71.2505 H              1 RES1               0.0000
     27 H27        206.4355  29.2641  68.0362 H              1 RES1               0.0000
     28 H28        204.4833  29.6389  71.8083 H              1 RES1               0.0000
     29 H29        204.8096  30.4118  69.4909 H              1 RES1               0.0000
@<TRIPOS>BOND
    1    1    2 1     
    2    1    3 1     
    3    1    4 1     
    4    1    5 1     
    5    2    6 ar    
    6    2    7 ar    
    7    3    8 1     
    8    3    9 2     
    9    4   10 1     
   10    4   11 2     
   11    5   12 1     
   12    5   18 1     
   13    5   19 1     
   14    6   13 ar    
   15    6   20 1     
   16    7   14 ar    
   17    7   21 1     
   18    8   15 1     
   19    8   22 1     
   20   10   15 1     
   21   10   23 1     
   22   12   24 1     
   23   12   25 1     
   24   12   26 1     
   25   13   16 ar    
   26   13   27 1     
   27   14   16 ar    
   28   14   28 1     
   29   15   17 2     
   30   16   29 1     
@<TRIPOS>SUBSTRUCTURE
      1 RES1           1
@<TRIPOS>SET
DONOR_HYDROGENS      STATIC     ATOMS    <user>   **** ""
2 22 23
ATOM$RED        STATIC     ATOMS    COLORGROUP SYSTEM
2 22 23
@<TRIPOS>COMMENT
> <Gold.Version>
2022.3.0

> <Gold.Id.Protein>
unknown|4v3u_clean|pdb

> <Gold.Protein.RotatedTorsions>
[  563  526  525  524 ] final  151.48 input   59.98 | X-H torsion
[  717  667  668  669 ] final   85.84 input  100.61 | X-H torsion
[ 26073 26019 26018 26016 ] final   36.46 input   60.01 | X-H torsion
[ 27142 27085 27084 27080 ] final -138.10 input   60.01 | X-H torsion
[  795  758  759  760 ] final -153.07 input  102.90 | X-H torsion
[ 18483 18438 18437 18435 ] final -133.68 input   59.97 | X-H torsion
[ 18292 18264 18263 18260 ] final -142.26 input   59.98 | X-H torsion
[ 10113 10080 10079 10076 ] final   45.99 input   60.03 | X-H torsion
[ 16984 16930 16929 16927 ] final   87.04 input   60.03 | X-H torsion
[ 11433 11400 11399 11396 ] final  -56.59 input   59.99 | X-H torsion
[ 27144 27087 27086 27084 ] final   43.38 input   60.02 | X-H torsion
[ 27201  670  669  668 ] final   43.59 input    0.00 | X-H torsion

> <Gold.Protein.ActiveResidues>
 LYS309  TRP311  GLU312  MET341  HIS342  TRP414  ALA417  ARG419  CYS420  VAL421 
 GLY422  ARG423  SER462  ALA463  SER482  GLN483  LEU484  ILE485  ARG486  ALA502 
 TRP566  TYR567  LEU569  PRO570  ALA571  VAL572  SER573  ASN574  MET575  PHE589 
 SER590  GLY591  TRP592  TYR593  MET594  GLU597  ILE598  ARG601  ASP602  ASP605 
 ARG608  TRP683  HIS697  GLU699  TYR711  HEM750  H4B760 

> <Gold.Protein.RotatedAtoms>
  215.8387   11.3018   67.8669 H   0  0  0  0  0  0  0  0  0  0  0  0  # atno 563  bound_to 526 
  216.6205   10.1383   66.9819 H   0  0  0  0  0  0  0  0  0  0  0  0  # atno 564  bound_to 526 
  216.4065   11.6567   66.3510 H   0  0  0  0  0  0  0  0  0  0  0  0  # atno 565  bound_to 526 
  208.7305   10.2972   65.4083 H   0  0  0  0  0  0  0  0  0  0  0  0  # atno 717  bound_to 667 
  208.1859   10.7944   68.1766 H   0  0  0  0  0  0  0  0  0  0  0  0  # atno 795  bound_to 758 
  204.9697   38.9994   69.8432 H   0  0  0  0  0  0  0  0  0  0  0  0  # atno 10113 bound_to 10080
  215.6501   22.8884   75.5956 H   0  0  0  0  0  0  0  0  0  0  0  0  # atno 11433 bound_to 11400
  207.2059   24.9392   77.1448 H   0  0  0  0  0  0  0  0  0  0  0  0  # atno 16984 bound_to 16930
  210.4377   36.7088   74.5126 H   0  0  0  0  0  0  0  0  0  0  0  0  # atno 18292 bound_to 18264
  205.5886   26.3347   76.9029 H   0  0  0  0  0  0  0  0  0  0  0  0  # atno 18483 bound_to 18438
  212.0073   23.5853   63.7047 H   0  0  0  0  0  0  0  0  0  0  0  0  # atno 26073 bound_to 26019
  206.6661   14.1571   64.2260 H   0  0  0  0  0  0  0  0  0  0  0  0  # atno 27142 bound_to 27085
  208.0675   16.0587   60.8508 H   0  0  0  0  0  0  0  0  0  0  0  0  # atno 27144 bound_to 27087
  210.1527    9.3047   65.6302 LP  0  0  0  0  0  0  0  0  0  0  0  0  # atno 27200 bound_to 667 
  210.2517   11.9696   69.4609 LP  0  0  0  0  0  0  0  0  0  0  0  0  # atno 27201 bound_to 670 
  210.0720   10.4091   70.1906 LP  0  0  0  0  0  0  0  0  0  0  0  0  # atno 27202 bound_to 670 
  212.0933   21.9859   63.4164 LP  0  0  0  0  0  0  0  0  0  0  0  0  # atno 27208 bound_to 26019
  212.0613   23.0423   62.1715 LP  0  0  0  0  0  0  0  0  0  0  0  0  # atno 27209 bound_to 26019
  205.3422   14.1219   63.2804 LP  0  0  0  0  0  0  0  0  0  0  0  0  # atno 27212 bound_to 27085
  205.4802   15.2476   64.4553 LP  0  0  0  0  0  0  0  0  0  0  0  0  # atno 27213 bound_to 27085
  208.8794    9.2431   67.7585 LP  0  0  0  0  0  0  0  0  0  0  0  0  # atno 27214 bound_to 758 
  206.5644   27.2439   75.9706 LP  0  0  0  0  0  0  0  0  0  0  0  0  # atno 27251 bound_to 18438
  205.8782   25.8920   75.3640 LP  0  0  0  0  0  0  0  0  0  0  0  0  # atno 27252 bound_to 18438
  208.8907   36.8414   74.0253 LP  0  0  0  0  0  0  0  0  0  0  0  0  # atno 27253 bound_to 18264
  210.1045   36.9549   72.9389 LP  0  0  0  0  0  0  0  0  0  0  0  0  # atno 27254 bound_to 18264
  205.8898   37.8350   69.1755 LP  0  0  0  0  0  0  0  0  0  0  0  0  # atno 27255 bound_to 10080
  205.1786   38.9603   68.2298 LP  0  0  0  0  0  0  0  0  0  0  0  0  # atno 27256 bound_to 10080
  208.5794   24.6509   77.9683 LP  0  0  0  0  0  0  0  0  0  0  0  0  # atno 27261 bound_to 16930
  208.5099   25.8802   76.8955 LP  0  0  0  0  0  0  0  0  0  0  0  0  # atno 27262 bound_to 16930
  214.6328   22.0157   74.6728 LP  0  0  0  0  0  0  0  0  0  0  0  0  # atno 27269 bound_to 11400
  214.2497   23.5467   75.0923 LP  0  0  0  0  0  0  0  0  0  0  0  0  # atno 27270 bound_to 11400

> <Gold.Score>
     Fitness  S(hb_ext) S(vdw_ext)  S(hb_int)    S(int)      intcor
     41.38       0.25      30.44       0.00      -0.72      -0.76

> <Gold.Goldscore.Fitness>
41.3789

> <Gold.Goldscore.Internal.Vdw>
-1.0352

> <Gold.Goldscore.Internal.Torsion>
-0.4463

> <Gold.Goldscore.External.Vdw>
30.4375

> <Gold.Goldscore.Internal.HBond>
0.0000

> <Gold.Goldscore.External.HBond>
0.2503

> <Gold.Goldscore.Internal.Correction>
-0.7585

> <Gold.Goldscore.Hbonds>
donor molecule, donor type, donor heavy atom, donor atom, acceptor molecule, acceptor atom, score
      P1  H 11446 11497       L1    17  0.05
      P1  H 16930 16984       L1    17  0.06
      L1  H     8    22       P1 11447  0.01

> <Gold.Goldscore.Internal.Vdw.Weighted>
-1.0352

> <Gold.Goldscore.Internal.Torsion.Weighted>
-0.4463

> <Gold.Goldscore.External.Vdw.Weighted>
41.8516

> <Gold.Goldscore.Internal.HBond.Weighted>
0.0000

> <Gold.Goldscore.External.HBond.Weighted>
0.2503

> <Gold.Goldscore.Internal.Correction.Weighted>
-0.7585

> <Gold.Rescore>
     Score     S(PLP)   S(hbond)     S(cho)   S(metal)  DE(clash)   DE(tors)     intcor
    -12.43      12.78       0.38       0.00       0.00       0.00       0.39       ----

> <Gold.PLP.Fitness>
-12.4331

> <Gold.PLP.PLP>
12.7787

> <Gold.PLP.part.hbond>
0.0143

> <Gold.PLP.part.metal>
0.0000

> <Gold.PLP.part.buried>
37.5377

> <Gold.PLP.part.nonpolar>
-31.8927

> <Gold.PLP.part.repulsive>
8.2554

> <Gold.PLP.ligand.clash>
0.0000

> <Gold.PLP.ligand.torsion>
0.3919

> <Gold.PLP.Chemscore.Hbond>
0.3765

> <Gold.PLP.Chemscore.CHOScore>
0.0000

> <Gold.PLP.Chemscore.Metal>
0.0000

> <Gold.Chemscore.Hbonds>
donor molecule, donor type, donor heavy atom, donor atom, acceptor molecule, acceptor atom, score
      L1  H     8    22       P1 11447  0.43
      P1  H 16930 16984       L1    17  0.41

> <Gold.PLP.Chemscore.Internal.Correction>
   9.000000E+99

