#       Name:                CT1002167954
#       Creating user name   hitesit
#       Creation time:       Sun Apr 16 22:53:03 2023


#       File generated by GOLD software.
#

@<TRIPOS>MOLECULE
CT1002167954|ligand_prepared|mol2|1|dock6
    29    30     1
SMALL
NO_CHARGES


@<TRIPOS>ATOM
      1 C1         209.7217  25.3207  70.3561 C.3            1 RES1               0.0000
      2 C2         208.7281  26.4592  70.0474 C.ar           1 RES1               0.0000
      3 C3         210.1700  24.7658  69.0073 C.2            1 RES1               0.0000
      4 C4         210.8449  25.9454  71.1762 C.2            1 RES1               0.0000
      5 C5         209.1111  24.1658  71.1839 C.3            1 RES1               0.0000
      6 C6         207.8210  26.8889  71.0115 C.ar           1 RES1               0.0000
      7 C7         208.7084  27.0901  68.8064 C.ar           1 RES1               0.0000
      8 N8         211.4303  25.0717  68.5856 N.am           1 RES1               0.0000
      9 O9         209.4154  24.1028  68.3063 O.2            1 RES1               0.0000
     10 N10        212.0959  25.9947  70.6190 N.am           1 RES1               0.0000
     11 O11        210.6545  26.4104  72.2933 O.2            1 RES1               0.0000
     12 C12        210.0147  22.9481  71.2970 C.3            1 RES1               0.0000
     13 C13        206.9285  27.9141  70.7455 C.ar           1 RES1               0.0000
     14 C14        207.8149  28.1151  68.5425 C.ar           1 RES1               0.0000
     15 C15        212.4329  25.6140  69.3487 C.2            1 RES1               0.0000
     16 C16        206.9252  28.5281  69.5112 C.ar           1 RES1               0.0000
     17 O17        213.5689  25.7397  68.9005 O.2            1 RES1               0.0000
     18 H18        208.8873  24.5344  72.1926 H              1 RES1               0.0000
     19 H19        208.1646  23.8613  70.7205 H              1 RES1               0.0000
     20 H20        207.8072  26.4159  71.9878 H              1 RES1               0.0000
     21 H21        209.3986  26.7809  68.0288 H              1 RES1               0.0000
     22 H22        211.6474  24.8797  67.6128 H              1 RES1               0.0000
     23 H23        212.8453  26.3478  71.2056 H              1 RES1               0.0000
     24 H24        209.5386  22.1680  71.8874 H              1 RES1               0.0000
     25 H25        210.2373  22.5403  70.3132 H              1 RES1               0.0000
     26 H26        210.9558  23.2094  71.7765 H              1 RES1               0.0000
     27 H27        206.2294  28.2346  71.5109 H              1 RES1               0.0000
     28 H28        207.8154  28.5950  67.5694 H              1 RES1               0.0000
     29 H29        206.2262  29.3315  69.3033 H              1 RES1               0.0000
@<TRIPOS>BOND
    1    1    2 1     
    2    1    3 1     
    3    1    4 1     
    4    1    5 1     
    5    2    6 ar    
    6    2    7 ar    
    7    3    8 1     
    8    3    9 2     
    9    4   10 1     
   10    4   11 2     
   11    5   12 1     
   12    5   18 1     
   13    5   19 1     
   14    6   13 ar    
   15    6   20 1     
   16    7   14 ar    
   17    7   21 1     
   18    8   15 1     
   19    8   22 1     
   20   10   15 1     
   21   10   23 1     
   22   12   24 1     
   23   12   25 1     
   24   12   26 1     
   25   13   16 ar    
   26   13   27 1     
   27   14   16 ar    
   28   14   28 1     
   29   15   17 2     
   30   16   29 1     
@<TRIPOS>SUBSTRUCTURE
      1 RES1           1
@<TRIPOS>SET
DONOR_HYDROGENS      STATIC     ATOMS    <user>   **** ""
2 22 23
ATOM$RED        STATIC     ATOMS    COLORGROUP SYSTEM
2 22 23
@<TRIPOS>COMMENT
> <Gold.Version>
2022.3.0

> <Gold.Id.Protein>
unknown|4v3u_clean|pdb

> <Gold.Protein.RotatedTorsions>
[  563  526  525  524 ] final    9.49 input   59.98 | X-H torsion
[  717  667  668  669 ] final   64.06 input  100.61 | X-H torsion
[ 26073 26019 26018 26016 ] final  -80.51 input   60.01 | X-H torsion
[ 27142 27085 27084 27080 ] final  174.25 input   60.01 | X-H torsion
[  795  758  759  760 ] final   84.41 input  102.90 | X-H torsion
[ 18483 18438 18437 18435 ] final   58.98 input   59.97 | X-H torsion
[ 18292 18264 18263 18260 ] final   28.66 input   59.98 | X-H torsion
[ 10113 10080 10079 10076 ] final -164.80 input   60.03 | X-H torsion
[ 16984 16930 16929 16927 ] final  159.68 input   60.03 | X-H torsion
[ 11433 11400 11399 11396 ] final -139.53 input   59.99 | X-H torsion
[ 27144 27087 27086 27084 ] final   45.01 input   60.02 | X-H torsion
[ 27201  670  669  668 ] final  -91.61 input    0.00 | X-H torsion

> <Gold.Protein.ActiveResidues>
 LYS309  TRP311  GLU312  MET341  HIS342  TRP414  ALA417  ARG419  CYS420  VAL421 
 GLY422  ARG423  SER462  ALA463  SER482  GLN483  LEU484  ILE485  ARG486  ALA502 
 TRP566  TYR567  LEU569  PRO570  ALA571  VAL572  SER573  ASN574  MET575  PHE589 
 SER590  GLY591  TRP592  TYR593  MET594  GLU597  ILE598  ARG601  ASP602  ASP605 
 ARG608  TRP683  HIS697  GLU699  TYR711  HEM750  H4B760 

> <Gold.Protein.RotatedAtoms>
  216.5671   11.3592   66.2112 H   0  0  0  0  0  0  0  0  0  0  0  0  # atno 563  bound_to 526 
  215.8250   11.6104   67.6722 H   0  0  0  0  0  0  0  0  0  0  0  0  # atno 564  bound_to 526 
  216.4740   10.1270   67.3154 H   0  0  0  0  0  0  0  0  0  0  0  0  # atno 565  bound_to 526 
  208.6167   10.0718   65.6277 H   0  0  0  0  0  0  0  0  0  0  0  0  # atno 717  bound_to 667 
  208.0928    9.3940   67.4992 H   0  0  0  0  0  0  0  0  0  0  0  0  # atno 795  bound_to 758 
  205.4611   38.5871   68.1556 H   0  0  0  0  0  0  0  0  0  0  0  0  # atno 10113 bound_to 10080
  215.1636   21.9553   74.9397 H   0  0  0  0  0  0  0  0  0  0  0  0  # atno 11433 bound_to 11400
  207.7922   25.7648   76.6926 H   0  0  0  0  0  0  0  0  0  0  0  0  # atno 16984 bound_to 16930
  209.3046   36.9656   73.0514 H   0  0  0  0  0  0  0  0  0  0  0  0  # atno 18292 bound_to 18264
  206.5040   26.8125   75.3549 H   0  0  0  0  0  0  0  0  0  0  0  0  # atno 18483 bound_to 18438
  212.0934   22.0099   63.4604 H   0  0  0  0  0  0  0  0  0  0  0  0  # atno 26073 bound_to 26019
  206.3355   13.7950   63.6501 H   0  0  0  0  0  0  0  0  0  0  0  0  # atno 27142 bound_to 27085
  208.0783   16.0366   60.8405 H   0  0  0  0  0  0  0  0  0  0  0  0  # atno 27144 bound_to 27087
  210.2637    9.5244   65.4164 LP  0  0  0  0  0  0  0  0  0  0  0  0  # atno 27200 bound_to 667 
  210.6466   10.4732   69.8724 LP  0  0  0  0  0  0  0  0  0  0  0  0  # atno 27201 bound_to 670 
  209.6771   11.9055   69.7791 LP  0  0  0  0  0  0  0  0  0  0  0  0  # atno 27202 bound_to 670 
  212.0640   22.9932   62.1639 LP  0  0  0  0  0  0  0  0  0  0  0  0  # atno 27208 bound_to 26019
  212.0040   23.6213   63.6700 LP  0  0  0  0  0  0  0  0  0  0  0  0  # atno 27209 bound_to 26019
  204.9937   14.7148   63.6079 LP  0  0  0  0  0  0  0  0  0  0  0  0  # atno 27212 bound_to 27085
  206.1617   15.0194   64.7077 LP  0  0  0  0  0  0  0  0  0  0  0  0  # atno 27213 bound_to 27085
  208.9696   10.6002   68.4150 LP  0  0  0  0  0  0  0  0  0  0  0  0  # atno 27214 bound_to 758 
  205.5057   25.6976   75.9939 LP  0  0  0  0  0  0  0  0  0  0  0  0  # atno 27251 bound_to 18438
  206.0148   26.9571   76.9001 LP  0  0  0  0  0  0  0  0  0  0  0  0  # atno 27252 bound_to 18438
  210.7534   36.8078   73.7756 LP  0  0  0  0  0  0  0  0  0  0  0  0  # atno 27253 bound_to 18264
  209.3827   36.7299   74.6597 LP  0  0  0  0  0  0  0  0  0  0  0  0  # atno 27254 bound_to 18264
  204.8132   39.2669   69.4847 LP  0  0  0  0  0  0  0  0  0  0  0  0  # atno 27255 bound_to 10080
  205.7604   37.9436   69.6201 LP  0  0  0  0  0  0  0  0  0  0  0  0  # atno 27256 bound_to 10080
  207.5189   24.4849   77.6597 LP  0  0  0  0  0  0  0  0  0  0  0  0  # atno 27261 bound_to 16930
  208.9798   25.2147   77.6595 LP  0  0  0  0  0  0  0  0  0  0  0  0  # atno 27262 bound_to 16930
  214.0145   23.0957   74.7753 LP  0  0  0  0  0  0  0  0  0  0  0  0  # atno 27269 bound_to 11400
  215.3578   23.4063   75.6503 LP  0  0  0  0  0  0  0  0  0  0  0  0  # atno 27270 bound_to 11400

> <Gold.Score>
     Fitness  S(hb_ext) S(vdw_ext)  S(hb_int)    S(int)      intcor
     37.40       6.21      23.43       0.00      -1.03      -0.76

> <Gold.Goldscore.Fitness>
37.4022

> <Gold.Goldscore.Internal.Vdw>
-1.2794

> <Gold.Goldscore.Internal.Torsion>
-0.5106

> <Gold.Goldscore.External.Vdw>
23.4331

> <Gold.Goldscore.Internal.HBond>
0.0000

> <Gold.Goldscore.External.HBond>
6.2131

> <Gold.Goldscore.Internal.Correction>
-0.7585

> <Gold.Goldscore.Hbonds>
donor molecule, donor type, donor heavy atom, donor atom, acceptor molecule, acceptor atom, score
      L1  H     8    22       P1 26790  0.99
      L1  H    10    23       P1 11398  0.14

> <Gold.Goldscore.Internal.Vdw.Weighted>
-1.2794

> <Gold.Goldscore.Internal.Torsion.Weighted>
-0.5106

> <Gold.Goldscore.External.Vdw.Weighted>
32.2206

> <Gold.Goldscore.Internal.HBond.Weighted>
0.0000

> <Gold.Goldscore.External.HBond.Weighted>
6.2131

> <Gold.Goldscore.Internal.Correction.Weighted>
-0.7585

> <Gold.Rescore>
     Score     S(PLP)   S(hbond)     S(cho)   S(metal)  DE(clash)   DE(tors)     intcor
     17.14     -15.54       1.00       0.00       0.00       1.34       0.03       ----

> <Gold.PLP.Fitness>
17.1448

> <Gold.PLP.PLP>
-15.5355

> <Gold.PLP.part.hbond>
-1.7965

> <Gold.PLP.part.metal>
0.0000

> <Gold.PLP.part.buried>
7.7859

> <Gold.PLP.part.nonpolar>
-31.7956

> <Gold.PLP.part.repulsive>
9.4383

> <Gold.PLP.ligand.clash>
1.3390

> <Gold.PLP.ligand.torsion>
0.0258

> <Gold.PLP.Chemscore.Hbond>
1.0000

> <Gold.PLP.Chemscore.CHOScore>
0.0000

> <Gold.PLP.Chemscore.Metal>
0.0000

> <Gold.Chemscore.Hbonds>
donor molecule, donor type, donor heavy atom, donor atom, acceptor molecule, acceptor atom, score
      L1  H     8    22       P1 26790  1.00

> <Gold.PLP.Chemscore.Internal.Correction>
   9.000000E+99

