#       Name:                CT1002167954
#       Creating user name   hitesit
#       Creation time:       Sun Apr 16 22:53:01 2023


#       File generated by GOLD software.
#

@<TRIPOS>MOLECULE
CT1002167954|ligand_prepared|mol2|1|dock3
    29    30     1
SMALL
NO_CHARGES


@<TRIPOS>ATOM
      1 C1         207.2352  22.6111  71.2885 C.3            1 RES1               0.0000
      2 C2         208.1510  23.6102  70.5524 C.ar           1 RES1               0.0000
      3 C3         208.1350  21.8229  72.2357 C.2            1 RES1               0.0000
      4 C4         206.1711  23.4462  71.9920 C.2            1 RES1               0.0000
      5 C5         206.5167  21.6139  70.3500 C.3            1 RES1               0.0000
      6 C6         208.9765  23.1841  69.5162 C.ar           1 RES1               0.0000
      7 C7         208.1793  24.9592  70.8959 C.ar           1 RES1               0.0000
      8 N8         208.0521  22.1054  73.5674 N.am           1 RES1               0.0000
      9 O9         208.9335  20.9939  71.8168 O.2            1 RES1               0.0000
     10 N10        206.1601  23.4501  73.3622 N.am           1 RES1               0.0000
     11 O11        205.3526  24.1141  71.3722 O.2            1 RES1               0.0000
     12 C12        205.4321  20.7986  71.0364 C.3            1 RES1               0.0000
     13 C13        209.7984  24.0747  68.8456 C.ar           1 RES1               0.0000
     14 C14        209.0021  25.8482  70.2241 C.ar           1 RES1               0.0000
     15 C15        207.0715  22.8420  74.1819 C.2            1 RES1               0.0000
     16 C16        209.8114  25.4073  69.1987 C.ar           1 RES1               0.0000
     17 O17        207.0267  22.9363  75.4051 O.2            1 RES1               0.0000
     18 H18        206.0667  22.1719  69.5196 H              1 RES1               0.0000
     19 H19        207.2608  20.9271  69.9281 H              1 RES1               0.0000
     20 H20        208.9816  22.1387  69.2259 H              1 RES1               0.0000
     21 H21        207.5519  25.3284  71.7000 H              1 RES1               0.0000
     22 H22        208.7872  21.7349  74.1612 H              1 RES1               0.0000
     23 H23        205.4022  23.9528  73.8130 H              1 RES1               0.0000
     24 H24        204.9602  20.1152  70.3335 H              1 RES1               0.0000
     25 H25        205.8489  20.2113  71.8520 H              1 RES1               0.0000
     26 H26        204.6618  21.4488  71.4460 H              1 RES1               0.0000
     27 H27        210.4344  23.7224  68.0403 H              1 RES1               0.0000
     28 H28        209.0096  26.8960  70.5058 H              1 RES1               0.0000
     29 H29        210.4550  26.1048  68.6730 H              1 RES1               0.0000
@<TRIPOS>BOND
    1    1    2 1     
    2    1    3 1     
    3    1    4 1     
    4    1    5 1     
    5    2    6 ar    
    6    2    7 ar    
    7    3    8 1     
    8    3    9 2     
    9    4   10 1     
   10    4   11 2     
   11    5   12 1     
   12    5   18 1     
   13    5   19 1     
   14    6   13 ar    
   15    6   20 1     
   16    7   14 ar    
   17    7   21 1     
   18    8   15 1     
   19    8   22 1     
   20   10   15 1     
   21   10   23 1     
   22   12   24 1     
   23   12   25 1     
   24   12   26 1     
   25   13   16 ar    
   26   13   27 1     
   27   14   16 ar    
   28   14   28 1     
   29   15   17 2     
   30   16   29 1     
@<TRIPOS>SUBSTRUCTURE
      1 RES1           1
@<TRIPOS>SET
DONOR_HYDROGENS      STATIC     ATOMS    <user>   **** ""
2 22 23
ATOM$RED        STATIC     ATOMS    COLORGROUP SYSTEM
2 22 23
@<TRIPOS>COMMENT
> <Gold.Version>
2022.3.0

> <Gold.Id.Protein>
unknown|4v3u_clean|pdb

> <Gold.Protein.RotatedTorsions>
[  563  526  525  524 ] final  129.95 input   59.98 | X-H torsion
[  717  667  668  669 ] final -139.09 input  100.61 | X-H torsion
[ 26073 26019 26018 26016 ] final -155.39 input   60.01 | X-H torsion
[ 27142 27085 27084 27080 ] final    7.11 input   60.01 | X-H torsion
[  795  758  759  760 ] final  141.99 input  102.90 | X-H torsion
[ 18483 18438 18437 18435 ] final  -49.91 input   59.97 | X-H torsion
[ 18292 18264 18263 18260 ] final  -85.35 input   59.98 | X-H torsion
[ 10113 10080 10079 10076 ] final -155.99 input   60.03 | X-H torsion
[ 16984 16930 16929 16927 ] final  120.62 input   60.03 | X-H torsion
[ 11433 11400 11399 11396 ] final   31.87 input   59.99 | X-H torsion
[ 27144 27087 27086 27084 ] final -117.18 input   60.02 | X-H torsion
[ 27201  670  669  668 ] final -132.30 input    0.00 | X-H torsion

> <Gold.Protein.ActiveResidues>
 LYS309  TRP311  GLU312  MET341  HIS342  TRP414  ALA417  ARG419  CYS420  VAL421 
 GLY422  ARG423  SER462  ALA463  SER482  GLN483  LEU484  ILE485  ARG486  ALA502 
 TRP566  TYR567  LEU569  PRO570  ALA571  VAL572  SER573  ASN574  MET575  PHE589 
 SER590  GLY591  TRP592  TYR593  MET594  GLU597  ILE598  ARG601  ASP602  ASP605 
 ARG608  TRP683  HIS697  GLU699  TYR711  HEM750  H4B760 

> <Gold.Protein.RotatedAtoms>
  215.8248   11.6047   67.6771 H   0  0  0  0  0  0  0  0  0  0  0  0  # atno 563  bound_to 526 
  216.4770   10.1256   67.3092 H   0  0  0  0  0  0  0  0  0  0  0  0  # atno 564  bound_to 526 
  216.5640   11.3667   66.2132 H   0  0  0  0  0  0  0  0  0  0  0  0  # atno 565  bound_to 526 
  210.2773    9.8040   65.2035 H   0  0  0  0  0  0  0  0  0  0  0  0  # atno 717  bound_to 667 
  207.7107   10.1410   67.6690 H   0  0  0  0  0  0  0  0  0  0  0  0  # atno 795  bound_to 758 
  205.5428   38.4711   68.1785 H   0  0  0  0  0  0  0  0  0  0  0  0  # atno 10113 bound_to 10080
  214.6488   23.6970   75.3730 H   0  0  0  0  0  0  0  0  0  0  0  0  # atno 11433 bound_to 11400
  207.3323   25.3654   76.8367 H   0  0  0  0  0  0  0  0  0  0  0  0  # atno 16984 bound_to 16930
  210.7369   36.8196   73.6793 H   0  0  0  0  0  0  0  0  0  0  0  0  # atno 18292 bound_to 18264
  205.5717   25.7033   75.8242 H   0  0  0  0  0  0  0  0  0  0  0  0  # atno 18483 bound_to 18438
  212.0984   22.3000   62.3596 H   0  0  0  0  0  0  0  0  0  0  0  0  # atno 26073 bound_to 26019
  205.1925   15.1663   64.1745 H   0  0  0  0  0  0  0  0  0  0  0  0  # atno 27142 bound_to 27085
  206.5375   16.1340   59.8218 H   0  0  0  0  0  0  0  0  0  0  0  0  # atno 27144 bound_to 27087
  208.6450    9.7854   65.8298 LP  0  0  0  0  0  0  0  0  0  0  0  0  # atno 27200 bound_to 667 
  210.1280   10.3946   70.1681 LP  0  0  0  0  0  0  0  0  0  0  0  0  # atno 27201 bound_to 670 
  210.1957   11.9841   69.4834 LP  0  0  0  0  0  0  0  0  0  0  0  0  # atno 27202 bound_to 670 
  212.0072   23.8057   62.9704 LP  0  0  0  0  0  0  0  0  0  0  0  0  # atno 27208 bound_to 26019
  212.0557   22.5168   63.9720 LP  0  0  0  0  0  0  0  0  0  0  0  0  # atno 27209 bound_to 26019
  206.6248   14.4638   64.4952 LP  0  0  0  0  0  0  0  0  0  0  0  0  # atno 27212 bound_to 27085
  205.6816   13.8895   63.2922 LP  0  0  0  0  0  0  0  0  0  0  0  0  # atno 27213 bound_to 27085
  209.3399    9.8763   68.2505 LP  0  0  0  0  0  0  0  0  0  0  0  0  # atno 27214 bound_to 758 
  205.9031   26.8241   76.9563 LP  0  0  0  0  0  0  0  0  0  0  0  0  # atno 27251 bound_to 18438
  206.5565   26.9479   75.4649 LP  0  0  0  0  0  0  0  0  0  0  0  0  # atno 27252 bound_to 18438
  209.4726   36.7208   74.6992 LP  0  0  0  0  0  0  0  0  0  0  0  0  # atno 27253 bound_to 18264
  209.2215   36.9639   73.1040 LP  0  0  0  0  0  0  0  0  0  0  0  0  # atno 27254 bound_to 18264
  204.7929   39.3158   69.3499 LP  0  0  0  0  0  0  0  0  0  0  0  0  # atno 27255 bound_to 10080
  205.6983   38.0116   69.7319 LP  0  0  0  0  0  0  0  0  0  0  0  0  # atno 27256 bound_to 10080
  208.0806   24.4337   77.9412 LP  0  0  0  0  0  0  0  0  0  0  0  0  # atno 27261 bound_to 16930
  208.8813   25.6681   77.2329 LP  0  0  0  0  0  0  0  0  0  0  0  0  # atno 27262 bound_to 16930
  215.6507   22.4152   75.4038 LP  0  0  0  0  0  0  0  0  0  0  0  0  # atno 27269 bound_to 11400
  214.2400   22.3329   74.5855 LP  0  0  0  0  0  0  0  0  0  0  0  0  # atno 27270 bound_to 11400

> <Gold.Score>
     Fitness  S(hb_ext) S(vdw_ext)  S(hb_int)    S(int)      intcor
     33.98       3.57      22.95       0.00      -1.14      -0.76

> <Gold.Goldscore.Fitness>
33.9759

> <Gold.Goldscore.Internal.Vdw>
-1.3775

> <Gold.Goldscore.Internal.Torsion>
-0.5318

> <Gold.Goldscore.External.Vdw>
22.9478

> <Gold.Goldscore.Internal.HBond>
0.0000

> <Gold.Goldscore.External.HBond>
3.5670

> <Gold.Goldscore.Internal.Correction>
-0.7650

> <Gold.Goldscore.Hbonds>
donor molecule, donor type, donor heavy atom, donor atom, acceptor molecule, acceptor atom, score
      P1  H 11446 11497       L1    17  0.15
      P1  H 19321 19379       L1    17  0.54

> <Gold.Goldscore.Internal.Vdw.Weighted>
-1.3775

> <Gold.Goldscore.Internal.Torsion.Weighted>
-0.5318

> <Gold.Goldscore.External.Vdw.Weighted>
31.5533

> <Gold.Goldscore.Internal.HBond.Weighted>
0.0000

> <Gold.Goldscore.External.HBond.Weighted>
3.5670

> <Gold.Goldscore.Internal.Correction.Weighted>
-0.7650

> <Gold.Rescore>
     Score     S(PLP)   S(hbond)     S(cho)   S(metal)  DE(clash)   DE(tors)     intcor
     21.73     -20.11       1.10       0.00       0.00       1.44       0.13       ----

> <Gold.PLP.Fitness>
21.7267

> <Gold.PLP.PLP>
-20.1129

> <Gold.PLP.part.hbond>
-4.0978

> <Gold.PLP.part.metal>
0.0000

> <Gold.PLP.part.buried>
-0.9525

> <Gold.PLP.part.nonpolar>
-19.8708

> <Gold.PLP.part.repulsive>
4.4277

> <Gold.PLP.ligand.clash>
1.4384

> <Gold.PLP.ligand.torsion>
0.1281

> <Gold.PLP.Chemscore.Hbond>
1.1028

> <Gold.PLP.Chemscore.CHOScore>
0.0000

> <Gold.PLP.Chemscore.Metal>
0.0000

> <Gold.Chemscore.Hbonds>
donor molecule, donor type, donor heavy atom, donor atom, acceptor molecule, acceptor atom, score
      P1  H 19321 19379       L1    17  0.46

> <Gold.PLP.Chemscore.Internal.Correction>
   9.000000E+99

