#       Name:                CT1002167954
#       Creating user name   hitesit
#       Creation time:       Sun Apr 16 22:53:06 2023


#       File generated by GOLD software.
#

@<TRIPOS>MOLECULE
CT1002167954|ligand_prepared|mol2|1|dock10
    29    30     1
SMALL
NO_CHARGES


@<TRIPOS>ATOM
      1 C1         207.0617  23.6761  72.5243 C.3            1 RES1               0.0000
      2 C2         207.6294  25.0789  72.8223 C.ar           1 RES1               0.0000
      3 C3         207.6691  23.2418  71.1937 C.2            1 RES1               0.0000
      4 C4         207.4568  22.7963  73.7052 C.2            1 RES1               0.0000
      5 C5         205.5209  23.6399  72.3960 C.3            1 RES1               0.0000
      6 C6         207.0851  25.8632  73.8348 C.ar           1 RES1               0.0000
      7 C7         208.6969  25.6001  72.0962 C.ar           1 RES1               0.0000
      8 N8         208.6442  22.2889  71.2253 N.am           1 RES1               0.0000
      9 O9         207.3257  23.7561  70.1363 O.2            1 RES1               0.0000
     10 N10        208.3321  21.7675  73.4749 N.am           1 RES1               0.0000
     11 O11        207.0309  22.9950  74.8363 O.2            1 RES1               0.0000
     12 C12        204.9812  22.3242  71.8577 C.3            1 RES1               0.0000
     13 C13        207.5915  27.1218  74.1135 C.ar           1 RES1               0.0000
     14 C14        209.2017  26.8592  72.3763 C.ar           1 RES1               0.0000
     15 C15        208.9676  21.4929  72.2946 C.2            1 RES1               0.0000
     16 C16        208.6503  27.6205  73.3849 C.ar           1 RES1               0.0000
     17 O17        209.7837  20.5830  72.1795 O.2            1 RES1               0.0000
     18 H18        205.0800  23.8250  73.3833 H              1 RES1               0.0000
     19 H19        205.2030  24.4511  71.7294 H              1 RES1               0.0000
     20 H20        206.2499  25.4885  74.4172 H              1 RES1               0.0000
     21 H21        209.1458  25.0195  71.2975 H              1 RES1               0.0000
     22 H22        209.1828  22.1559  70.3753 H              1 RES1               0.0000
     23 H23        208.5281  21.1491  74.2555 H              1 RES1               0.0000
     24 H24        203.8959  22.3523  71.7876 H              1 RES1               0.0000
     25 H25        205.3797  22.1207  70.8660 H              1 RES1               0.0000
     26 H26        205.2574  21.4983  72.5100 H              1 RES1               0.0000
     27 H27        207.1531  27.7176  74.9073 H              1 RES1               0.0000
     28 H28        210.0347  27.2479  71.7999 H              1 RES1               0.0000
     29 H29        209.0471  28.6064  73.6036 H              1 RES1               0.0000
@<TRIPOS>BOND
    1    1    2 1     
    2    1    3 1     
    3    1    4 1     
    4    1    5 1     
    5    2    6 ar    
    6    2    7 ar    
    7    3    8 1     
    8    3    9 2     
    9    4   10 1     
   10    4   11 2     
   11    5   12 1     
   12    5   18 1     
   13    5   19 1     
   14    6   13 ar    
   15    6   20 1     
   16    7   14 ar    
   17    7   21 1     
   18    8   15 1     
   19    8   22 1     
   20   10   15 1     
   21   10   23 1     
   22   12   24 1     
   23   12   25 1     
   24   12   26 1     
   25   13   16 ar    
   26   13   27 1     
   27   14   16 ar    
   28   14   28 1     
   29   15   17 2     
   30   16   29 1     
@<TRIPOS>SUBSTRUCTURE
      1 RES1           1
@<TRIPOS>SET
DONOR_HYDROGENS      STATIC     ATOMS    <user>   **** ""
2 22 23
ATOM$RED        STATIC     ATOMS    COLORGROUP SYSTEM
2 22 23
@<TRIPOS>COMMENT
> <Gold.Version>
2022.3.0

> <Gold.Id.Protein>
unknown|4v3u_clean|pdb

> <Gold.Protein.RotatedTorsions>
[  563  526  525  524 ] final  109.05 input   59.98 | X-H torsion
[  717  667  668  669 ] final  -80.39 input  100.61 | X-H torsion
[ 26073 26019 26018 26016 ] final   39.38 input   60.01 | X-H torsion
[ 27142 27085 27084 27080 ] final  -12.01 input   60.01 | X-H torsion
[  795  758  759  760 ] final  -39.36 input  102.90 | X-H torsion
[ 18483 18438 18437 18435 ] final  -90.08 input   59.97 | X-H torsion
[ 18292 18264 18263 18260 ] final  -31.57 input   59.98 | X-H torsion
[ 10113 10080 10079 10076 ] final   48.30 input   60.03 | X-H torsion
[ 16984 16930 16929 16927 ] final  145.25 input   60.03 | X-H torsion
[ 11433 11400 11399 11396 ] final  153.45 input   59.99 | X-H torsion
[ 27144 27087 27086 27084 ] final   65.12 input   60.02 | X-H torsion
[ 27201  670  669  668 ] final  154.45 input    0.00 | X-H torsion

> <Gold.Protein.ActiveResidues>
 LYS309  TRP311  GLU312  MET341  HIS342  TRP414  ALA417  ARG419  CYS420  VAL421 
 GLY422  ARG423  SER462  ALA463  SER482  GLN483  LEU484  ILE485  ARG486  ALA502 
 TRP566  TYR567  LEU569  PRO570  ALA571  VAL572  SER573  ASN574  MET575  PHE589 
 SER590  GLY591  TRP592  TYR593  MET594  GLU597  ILE598  ARG601  ASP602  ASP605 
 ARG608  TRP683  HIS697  GLU699  TYR711  HEM750  H4B760 

> <Gold.Protein.RotatedAtoms>
  215.8732   11.8224   67.4113 H   0  0  0  0  0  0  0  0  0  0  0  0  # atno 563  bound_to 526 
  216.3123   10.2343   67.5948 H   0  0  0  0  0  0  0  0  0  0  0  0  # atno 564  bound_to 526 
  216.6802   11.0404   66.1933 H   0  0  0  0  0  0  0  0  0  0  0  0  # atno 565  bound_to 526 
  210.0465    9.1895   65.7713 H   0  0  0  0  0  0  0  0  0  0  0  0  # atno 717  bound_to 667 
  209.3585    9.8844   68.2836 H   0  0  0  0  0  0  0  0  0  0  0  0  # atno 795  bound_to 758 
  204.9535   39.0251   69.8207 H   0  0  0  0  0  0  0  0  0  0  0  0  # atno 10113 bound_to 10080
  214.2615   22.3171   74.5877 H   0  0  0  0  0  0  0  0  0  0  0  0  # atno 11433 bound_to 11400
  207.5930   25.6414   76.7130 H   0  0  0  0  0  0  0  0  0  0  0  0  # atno 16984 bound_to 16930
  210.2425   36.9375   73.0018 H   0  0  0  0  0  0  0  0  0  0  0  0  # atno 18292 bound_to 18264
  205.4331   25.8433   76.4363 H   0  0  0  0  0  0  0  0  0  0  0  0  # atno 18483 bound_to 18438
  212.0065   23.6152   63.6676 H   0  0  0  0  0  0  0  0  0  0  0  0  # atno 26073 bound_to 26019
  205.4049   15.2379   64.3901 H   0  0  0  0  0  0  0  0  0  0  0  0  # atno 27142 bound_to 27085
  208.1607   15.7652   60.6781 H   0  0  0  0  0  0  0  0  0  0  0  0  # atno 27144 bound_to 27087
  208.8700   10.3844   65.2763 LP  0  0  0  0  0  0  0  0  0  0  0  0  # atno 27200 bound_to 667 
  209.4024   11.1270   70.2372 LP  0  0  0  0  0  0  0  0  0  0  0  0  # atno 27201 bound_to 670 
  210.9213   11.2516   69.4143 LP  0  0  0  0  0  0  0  0  0  0  0  0  # atno 27202 bound_to 670 
  212.0916   22.0032   63.4612 LP  0  0  0  0  0  0  0  0  0  0  0  0  # atno 27208 bound_to 26019
  212.0639   22.9949   62.1641 LP  0  0  0  0  0  0  0  0  0  0  0  0  # atno 27209 bound_to 26019
  206.6746   14.2241   64.2998 LP  0  0  0  0  0  0  0  0  0  0  0  0  # atno 27212 bound_to 27085
  205.4179   14.0571   63.2705 LP  0  0  0  0  0  0  0  0  0  0  0  0  # atno 27213 bound_to 27085
  207.7432   10.1250   67.6549 LP  0  0  0  0  0  0  0  0  0  0  0  0  # atno 27214 bound_to 758 
  206.2957   27.2113   76.6165 LP  0  0  0  0  0  0  0  0  0  0  0  0  # atno 27251 bound_to 18438
  206.3036   26.4197   75.1882 LP  0  0  0  0  0  0  0  0  0  0  0  0  # atno 27252 bound_to 18438
  210.3205   36.7019   74.6101 LP  0  0  0  0  0  0  0  0  0  0  0  0  # atno 27253 bound_to 18264
  208.8713   36.8642   73.8752 LP  0  0  0  0  0  0  0  0  0  0  0  0  # atno 27254 bound_to 18264
  205.8844   37.8365   69.2131 LP  0  0  0  0  0  0  0  0  0  0  0  0  # atno 27255 bound_to 10080
  205.2002   38.9329   68.2148 LP  0  0  0  0  0  0  0  0  0  0  0  0  # atno 27256 bound_to 10080
  207.7083   24.4265   77.7895 LP  0  0  0  0  0  0  0  0  0  0  0  0  # atno 27261 bound_to 16930
  208.9910   25.3974   77.5092 LP  0  0  0  0  0  0  0  0  0  0  0  0  # atno 27262 bound_to 16930
  214.6238   23.7006   75.3639 LP  0  0  0  0  0  0  0  0  0  0  0  0  # atno 27269 bound_to 11400
  215.6569   22.4370   75.4162 LP  0  0  0  0  0  0  0  0  0  0  0  0  # atno 27270 bound_to 11400

> <Gold.Score>
     Fitness  S(hb_ext) S(vdw_ext)  S(hb_int)    S(int)      intcor
     38.71       3.25      26.91       0.00      -1.54      -0.76

> <Gold.Goldscore.Fitness>
38.7055

> <Gold.Goldscore.Internal.Vdw>
-1.7486

> <Gold.Goldscore.Internal.Torsion>
-0.5457

> <Gold.Goldscore.External.Vdw>
26.9060

> <Gold.Goldscore.Internal.HBond>
0.0000

> <Gold.Goldscore.External.HBond>
3.2464

> <Gold.Goldscore.Internal.Correction>
-0.7576

> <Gold.Goldscore.Hbonds>
donor molecule, donor type, donor heavy atom, donor atom, acceptor molecule, acceptor atom, score
      P1  H 11446 11497       L1    11  0.13
      P1  H 19321 19379       L1    11  0.50

> <Gold.Goldscore.Internal.Vdw.Weighted>
-1.7486

> <Gold.Goldscore.Internal.Torsion.Weighted>
-0.5457

> <Gold.Goldscore.External.Vdw.Weighted>
36.9958

> <Gold.Goldscore.Internal.HBond.Weighted>
0.0000

> <Gold.Goldscore.External.HBond.Weighted>
3.2464

> <Gold.Goldscore.Internal.Correction.Weighted>
-0.7576

> <Gold.Rescore>
     Score     S(PLP)   S(hbond)     S(cho)   S(metal)  DE(clash)   DE(tors)     intcor
     17.86     -19.21       0.21       0.00       0.00       1.20       0.39       ----

> <Gold.PLP.Fitness>
17.8568

> <Gold.PLP.PLP>
-19.2122

> <Gold.PLP.part.hbond>
-3.1955

> <Gold.PLP.part.metal>
0.0000

> <Gold.PLP.part.buried>
-0.2568

> <Gold.PLP.part.nonpolar>
-26.0910

> <Gold.PLP.part.repulsive>
9.7632

> <Gold.PLP.ligand.clash>
1.2012

> <Gold.PLP.ligand.torsion>
0.3891

> <Gold.PLP.Chemscore.Hbond>
0.2080

> <Gold.PLP.Chemscore.CHOScore>
0.0000

> <Gold.PLP.Chemscore.Metal>
0.0000

> <Gold.PLP.Chemscore.Internal.Correction>
   9.000000E+99

