#       Name:                CT1002167954
#       Creating user name   hitesit
#       Creation time:       Sun Apr 16 22:53:02 2023


#       File generated by GOLD software.
#

@<TRIPOS>MOLECULE
CT1002167954|ligand_prepared|mol2|1|dock5
    29    30     1
SMALL
NO_CHARGES


@<TRIPOS>ATOM
      1 C1         207.6156  26.3130  71.3240 C.3            1 RES1               0.0000
      2 C2         207.3588  27.4689  70.3358 C.ar           1 RES1               0.0000
      3 C3         207.5111  25.0247  70.5129 C.2            1 RES1               0.0000
      4 C4         208.9961  26.5615  71.9217 C.2            1 RES1               0.0000
      5 C5         206.5971  26.2461  72.4857 C.3            1 RES1               0.0000
      6 C6         208.1298  27.6019  69.1849 C.ar           1 RES1               0.0000
      7 C7         206.3544  28.4069  70.5597 C.ar           1 RES1               0.0000
      8 N8         208.6688  24.3649  70.2230 N.am           1 RES1               0.0000
      9 O9         206.4330  24.6152  70.1002 O.2            1 RES1               0.0000
     10 N10        209.9901  25.6619  71.6379 N.am           1 RES1               0.0000
     11 O11        209.2363  27.5371  72.6222 O.2            1 RES1               0.0000
     12 C12        206.7857  25.0444  73.3981 C.3            1 RES1               0.0000
     13 C13        207.9032  28.6334  68.2888 C.ar           1 RES1               0.0000
     14 C14        206.1296  29.4378  69.6624 C.ar           1 RES1               0.0000
     15 C15        209.8969  24.5915  70.7907 C.2            1 RES1               0.0000
     16 C16        206.9028  29.5516  68.5266 C.ar           1 RES1               0.0000
     17 O17        210.8507  23.8592  70.5435 O.2            1 RES1               0.0000
     18 H18        206.6837  27.1611  73.0844 H              1 RES1               0.0000
     19 H19        205.5841  26.2149  72.0657 H              1 RES1               0.0000
     20 H20        208.9232  26.8902  68.9822 H              1 RES1               0.0000
     21 H21        205.7345  28.3376  71.4471 H              1 RES1               0.0000
     22 H22        208.6168  23.6355  69.5190 H              1 RES1               0.0000
     23 H23        210.8821  25.8032  72.1013 H              1 RES1               0.0000
     24 H24        206.0457  25.0457  74.1957 H              1 RES1               0.0000
     25 H25        206.6810  24.1162  72.8402 H              1 RES1               0.0000
     26 H26        207.7741  25.0568  73.8528 H              1 RES1               0.0000
     27 H27        208.5154  28.7194  67.3971 H              1 RES1               0.0000
     28 H28        205.3416  30.1586  69.8539 H              1 RES1               0.0000
     29 H29        206.7252  30.3594  67.8243 H              1 RES1               0.0000
@<TRIPOS>BOND
    1    1    2 1     
    2    1    3 1     
    3    1    4 1     
    4    1    5 1     
    5    2    6 ar    
    6    2    7 ar    
    7    3    8 1     
    8    3    9 2     
    9    4   10 1     
   10    4   11 2     
   11    5   12 1     
   12    5   18 1     
   13    5   19 1     
   14    6   13 ar    
   15    6   20 1     
   16    7   14 ar    
   17    7   21 1     
   18    8   15 1     
   19    8   22 1     
   20   10   15 1     
   21   10   23 1     
   22   12   24 1     
   23   12   25 1     
   24   12   26 1     
   25   13   16 ar    
   26   13   27 1     
   27   14   16 ar    
   28   14   28 1     
   29   15   17 2     
   30   16   29 1     
@<TRIPOS>SUBSTRUCTURE
      1 RES1           1
@<TRIPOS>SET
DONOR_HYDROGENS      STATIC     ATOMS    <user>   **** ""
2 22 23
ATOM$RED        STATIC     ATOMS    COLORGROUP SYSTEM
2 22 23
@<TRIPOS>COMMENT
> <Gold.Version>
2022.3.0

> <Gold.Id.Protein>
unknown|4v3u_clean|pdb

> <Gold.Protein.RotatedTorsions>
[  563  526  525  524 ] final  130.89 input   59.98 | X-H torsion
[  717  667  668  669 ] final  -59.76 input  100.61 | X-H torsion
[ 26073 26019 26018 26016 ] final   21.85 input   60.01 | X-H torsion
[ 27142 27085 27084 27080 ] final   63.97 input   60.01 | X-H torsion
[  795  758  759  760 ] final  112.25 input  102.90 | X-H torsion
[ 18483 18438 18437 18435 ] final   87.94 input   59.97 | X-H torsion
[ 18292 18264 18263 18260 ] final   51.16 input   59.98 | X-H torsion
[ 10113 10080 10079 10076 ] final  -25.08 input   60.03 | X-H torsion
[ 16984 16930 16929 16927 ] final  172.81 input   60.03 | X-H torsion
[ 11433 11400 11399 11396 ] final   25.25 input   59.99 | X-H torsion
[ 27144 27087 27086 27084 ] final  120.69 input   60.02 | X-H torsion
[ 27201  670  669  668 ] final   92.82 input    0.00 | X-H torsion

> <Gold.Protein.ActiveResidues>
 LYS309  TRP311  GLU312  MET341  HIS342  TRP414  ALA417  ARG419  CYS420  VAL421 
 GLY422  ARG423  SER462  ALA463  SER482  GLN483  LEU484  ILE485  ARG486  ALA502 
 TRP566  TYR567  LEU569  PRO570  ALA571  VAL572  SER573  ASN574  MET575  PHE589 
 SER590  GLY591  TRP592  TYR593  MET594  GLU597  ILE598  ARG601  ASP602  ASP605 
 ARG608  TRP683  HIS697  GLU699  TYR711  HEM750  H4B760 

> <Gold.Protein.RotatedAtoms>
  215.8240   11.5928   67.6875 H   0  0  0  0  0  0  0  0  0  0  0  0  # atno 563  bound_to 526 
  216.4839   10.1235   67.2953 H   0  0  0  0  0  0  0  0  0  0  0  0  # atno 564  bound_to 526 
  216.5578   11.3807   66.2168 H   0  0  0  0  0  0  0  0  0  0  0  0  # atno 565  bound_to 526 
  209.7953    9.0954   65.9406 H   0  0  0  0  0  0  0  0  0  0  0  0  # atno 717  bound_to 667 
  207.8192    9.7214   67.5265 H   0  0  0  0  0  0  0  0  0  0  0  0  # atno 795  bound_to 758 
  205.6098   38.1193   69.8437 H   0  0  0  0  0  0  0  0  0  0  0  0  # atno 10113 bound_to 10080
  214.7434   23.6966   75.4254 H   0  0  0  0  0  0  0  0  0  0  0  0  # atno 11433 bound_to 11400
  207.9903   25.8439   76.7095 H   0  0  0  0  0  0  0  0  0  0  0  0  # atno 16984 bound_to 16930
  209.0425   36.9384   73.3044 H   0  0  0  0  0  0  0  0  0  0  0  0  # atno 18292 bound_to 18264
  206.5833   27.1218   75.6971 H   0  0  0  0  0  0  0  0  0  0  0  0  # atno 18483 bound_to 18438
  212.0135   23.4094   63.8652 H   0  0  0  0  0  0  0  0  0  0  0  0  # atno 26073 bound_to 26019
  205.0297   14.5927   63.5119 H   0  0  0  0  0  0  0  0  0  0  0  0  # atno 27142 bound_to 27085
  207.8857   15.2300   60.0459 H   0  0  0  0  0  0  0  0  0  0  0  0  # atno 27144 bound_to 27087
  209.1149   10.4761   65.1114 LP  0  0  0  0  0  0  0  0  0  0  0  0  # atno 27200 bound_to 667 
  209.6309   11.8734   69.8157 LP  0  0  0  0  0  0  0  0  0  0  0  0  # atno 27201 bound_to 670 
  210.6928   10.5052   69.8358 LP  0  0  0  0  0  0  0  0  0  0  0  0  # atno 27202 bound_to 670 
  212.1003   21.9348   63.1822 LP  0  0  0  0  0  0  0  0  0  0  0  0  # atno 27208 bound_to 26019
  212.0482   23.2704   62.2441 LP  0  0  0  0  0  0  0  0  0  0  0  0  # atno 27209 bound_to 26019
  206.0258   15.1024   64.6933 LP  0  0  0  0  0  0  0  0  0  0  0  0  # atno 27212 bound_to 27085
  206.4446   13.8285   63.7614 LP  0  0  0  0  0  0  0  0  0  0  0  0  # atno 27213 bound_to 27085
  209.2348   10.2829   68.3885 LP  0  0  0  0  0  0  0  0  0  0  0  0  # atno 27214 bound_to 758 
  205.7069   25.7565   75.5716 LP  0  0  0  0  0  0  0  0  0  0  0  0  # atno 27251 bound_to 18438
  205.7337   26.5866   76.9776 LP  0  0  0  0  0  0  0  0  0  0  0  0  # atno 27252 bound_to 18438
  210.6637   36.8628   73.4231 LP  0  0  0  0  0  0  0  0  0  0  0  0  # atno 27253 bound_to 18264
  209.7361   36.7023   74.7575 LP  0  0  0  0  0  0  0  0  0  0  0  0  # atno 27254 bound_to 18264
  205.6379   38.3288   68.2301 LP  0  0  0  0  0  0  0  0  0  0  0  0  # atno 27255 bound_to 10080
  204.7859   39.3529   69.1746 LP  0  0  0  0  0  0  0  0  0  0  0  0  # atno 27256 bound_to 10080
  207.3781   24.5750   77.5236 LP  0  0  0  0  0  0  0  0  0  0  0  0  # atno 27261 bound_to 16930
  208.9211   25.0449   77.7787 LP  0  0  0  0  0  0  0  0  0  0  0  0  # atno 27262 bound_to 16930
  215.6183   22.3267   75.3492 LP  0  0  0  0  0  0  0  0  0  0  0  0  # atno 27269 bound_to 11400
  214.1771   22.4218   74.5873 LP  0  0  0  0  0  0  0  0  0  0  0  0  # atno 27270 bound_to 11400

> <Gold.Score>
     Fitness  S(hb_ext) S(vdw_ext)  S(hb_int)    S(int)      intcor
     38.58       0.19      28.00       0.00      -0.11      -0.76

> <Gold.Goldscore.Fitness>
38.5849

> <Gold.Goldscore.Internal.Vdw>
-0.4642

> <Gold.Goldscore.Internal.Torsion>
-0.4011

> <Gold.Goldscore.External.Vdw>
27.9987

> <Gold.Goldscore.Internal.HBond>
0.0000

> <Gold.Goldscore.External.HBond>
0.1935

> <Gold.Goldscore.Internal.Correction>
-0.7585

> <Gold.Goldscore.Hbonds>
donor molecule, donor type, donor heavy atom, donor atom, acceptor molecule, acceptor atom, score
      L1  H     8    22       P1 26795  0.03

> <Gold.Goldscore.Internal.Vdw.Weighted>
-0.4642

> <Gold.Goldscore.Internal.Torsion.Weighted>
-0.4011

> <Gold.Goldscore.External.Vdw.Weighted>
38.4982

> <Gold.Goldscore.Internal.HBond.Weighted>
0.0000

> <Gold.Goldscore.External.HBond.Weighted>
0.1935

> <Gold.Goldscore.Internal.Correction.Weighted>
-0.7585

> <Gold.Rescore>
     Score     S(PLP)   S(hbond)     S(cho)   S(metal)  DE(clash)   DE(tors)     intcor
     35.70     -34.90       0.67       0.00       0.00       0.00       0.60       ----

> <Gold.PLP.Fitness>
35.6971

> <Gold.PLP.PLP>
-34.9010

> <Gold.PLP.part.hbond>
-0.6790

> <Gold.PLP.part.metal>
0.0000

> <Gold.PLP.part.buried>
2.4811

> <Gold.PLP.part.nonpolar>
-41.5375

> <Gold.PLP.part.repulsive>
5.1101

> <Gold.PLP.ligand.clash>
0.0000

> <Gold.PLP.ligand.torsion>
0.6013

> <Gold.PLP.Chemscore.Hbond>
0.6663

> <Gold.PLP.Chemscore.CHOScore>
0.0000

> <Gold.PLP.Chemscore.Metal>
0.0000

> <Gold.Chemscore.Hbonds>
donor molecule, donor type, donor heavy atom, donor atom, acceptor molecule, acceptor atom, score
      L1  H     8    22       P1 26795  0.41

> <Gold.PLP.Chemscore.Internal.Correction>
   9.000000E+99

