#       Name:                CT1002167954
#       Creating user name   hitesit
#       Creation time:       Sun Apr 16 22:53:00 2023


#       File generated by GOLD software.
#

@<TRIPOS>MOLECULE
CT1002167954|ligand_prepared|mol2|1|dock2
    29    30     1
SMALL
NO_CHARGES


@<TRIPOS>ATOM
      1 C1         207.5461  26.5708  71.5850 C.3            1 RES1               0.0000
      2 C2         206.7476  25.2526  71.6449 C.ar           1 RES1               0.0000
      3 C3         208.4812  26.4512  70.3852 C.2            1 RES1               0.0000
      4 C4         206.5161  27.6882  71.4620 C.2            1 RES1               0.0000
      5 C5         208.3980  26.8432  72.8466 C.3            1 RES1               0.0000
      6 C6         206.6152  24.4524  70.5141 C.ar           1 RES1               0.0000
      7 C7         206.1412  24.8231  72.8223 C.ar           1 RES1               0.0000
      8 N8         208.1739  27.1736  69.2701 N.am           1 RES1               0.0000
      9 O9         209.4516  25.7039  70.4034 O.2            1 RES1               0.0000
     10 N10        206.4956  28.4178  70.3022 N.am           1 RES1               0.0000
     11 O11        205.7111  27.9327  72.3522 O.2            1 RES1               0.0000
     12 C12        209.3027  28.0593  72.7248 C.3            1 RES1               0.0000
     13 C13        205.9048  23.2643  70.5593 C.ar           1 RES1               0.0000
     14 C14        205.4310  23.6347  72.8653 C.ar           1 RES1               0.0000
     15 C15        207.2575  28.1911  69.1885 C.2            1 RES1               0.0000
     16 C16        205.3127  22.8544  71.7349 C.ar           1 RES1               0.0000
     17 O17        207.1435  28.8563  68.1630 O.2            1 RES1               0.0000
     18 H18        207.7264  26.9870  73.7019 H              1 RES1               0.0000
     19 H19        209.0176  25.9614  73.0514 H              1 RES1               0.0000
     20 H20        207.0722  24.7598  69.5794 H              1 RES1               0.0000
     21 H21        206.2202  25.4213  73.7237 H              1 RES1               0.0000
     22 H22        208.6714  26.9353  68.4181 H              1 RES1               0.0000
     23 H23        205.8530  29.2026  70.2657 H              1 RES1               0.0000
     24 H24        209.8779  28.2050  73.6367 H              1 RES1               0.0000
     25 H25        210.0010  27.9394  71.8991 H              1 RES1               0.0000
     26 H26        208.7175  28.9589  72.5458 H              1 RES1               0.0000
     27 H27        205.8135  22.6545  69.6665 H              1 RES1               0.0000
     28 H28        204.9661  23.3163  73.7925 H              1 RES1               0.0000
     29 H29        204.7566  21.9234  71.7702 H              1 RES1               0.0000
@<TRIPOS>BOND
    1    1    2 1     
    2    1    3 1     
    3    1    4 1     
    4    1    5 1     
    5    2    6 ar    
    6    2    7 ar    
    7    3    8 1     
    8    3    9 2     
    9    4   10 1     
   10    4   11 2     
   11    5   12 1     
   12    5   18 1     
   13    5   19 1     
   14    6   13 ar    
   15    6   20 1     
   16    7   14 ar    
   17    7   21 1     
   18    8   15 1     
   19    8   22 1     
   20   10   15 1     
   21   10   23 1     
   22   12   24 1     
   23   12   25 1     
   24   12   26 1     
   25   13   16 ar    
   26   13   27 1     
   27   14   16 ar    
   28   14   28 1     
   29   15   17 2     
   30   16   29 1     
@<TRIPOS>SUBSTRUCTURE
      1 RES1           1
@<TRIPOS>SET
DONOR_HYDROGENS      STATIC     ATOMS    <user>   **** ""
2 22 23
ATOM$RED        STATIC     ATOMS    COLORGROUP SYSTEM
2 22 23
@<TRIPOS>COMMENT
> <Gold.Version>
2022.3.0

> <Gold.Id.Protein>
unknown|4v3u_clean|pdb

> <Gold.Protein.RotatedTorsions>
[  563  526  525  524 ] final  -70.16 input   59.98 | X-H torsion
[  717  667  668  669 ] final   52.34 input  100.61 | X-H torsion
[ 26073 26019 26018 26016 ] final   46.87 input   60.01 | X-H torsion
[ 27142 27085 27084 27080 ] final -125.02 input   60.01 | X-H torsion
[  795  758  759  760 ] final   89.64 input  102.90 | X-H torsion
[ 18483 18438 18437 18435 ] final -127.50 input   59.97 | X-H torsion
[ 18292 18264 18263 18260 ] final  120.08 input   59.98 | X-H torsion
[ 10113 10080 10079 10076 ] final -104.51 input   60.03 | X-H torsion
[ 16984 16930 16929 16927 ] final -126.77 input   60.03 | X-H torsion
[ 11433 11400 11399 11396 ] final -171.99 input   59.99 | X-H torsion
[ 27144 27087 27086 27084 ] final  152.92 input   60.02 | X-H torsion
[ 27201  670  669  668 ] final -179.34 input    0.00 | X-H torsion

> <Gold.Protein.ActiveResidues>
 LYS309  TRP311  GLU312  MET341  HIS342  TRP414  ALA417  ARG419  CYS420  VAL421 
 GLY422  ARG423  SER462  ALA463  SER482  GLN483  LEU484  ILE485  ARG486  ALA502 
 TRP566  TYR567  LEU569  PRO570  ALA571  VAL572  SER573  ASN574  MET575  PHE589 
 SER590  GLY591  TRP592  TYR593  MET594  GLU597  ILE598  ARG601  ASP602  ASP605 
 ARG608  TRP683  HIS697  GLU699  TYR711  HEM750  H4B760 

> <Gold.Protein.RotatedAtoms>
  216.7069   10.2484   66.7105 H   0  0  0  0  0  0  0  0  0  0  0  0  # atno 563  bound_to 526 
  216.2584   11.8361   66.5478 H   0  0  0  0  0  0  0  0  0  0  0  0  # atno 564  bound_to 526 
  215.9009   11.0115   67.9411 H   0  0  0  0  0  0  0  0  0  0  0  0  # atno 565  bound_to 526 
  208.6044    9.9319   65.7416 H   0  0  0  0  0  0  0  0  0  0  0  0  # atno 717  bound_to 667 
  208.0313    9.4467   67.4958 H   0  0  0  0  0  0  0  0  0  0  0  0  # atno 795  bound_to 758 
  205.8748   37.9346   68.6917 H   0  0  0  0  0  0  0  0  0  0  0  0  # atno 10113 bound_to 10080
  214.7008   21.9945   74.6986 H   0  0  0  0  0  0  0  0  0  0  0  0  # atno 11433 bound_to 11400
  208.8130   25.7306   77.1544 H   0  0  0  0  0  0  0  0  0  0  0  0  # atno 16984 bound_to 16930
  209.0392   36.7849   74.3529 H   0  0  0  0  0  0  0  0  0  0  0  0  # atno 18292 bound_to 18264
  205.5487   26.2522   76.8606 H   0  0  0  0  0  0  0  0  0  0  0  0  # atno 18483 bound_to 18438
  212.0048   23.6831   63.5657 H   0  0  0  0  0  0  0  0  0  0  0  0  # atno 26073 bound_to 26019
  206.6624   14.3123   64.3721 H   0  0  0  0  0  0  0  0  0  0  0  0  # atno 27142 bound_to 27085
  207.4734   15.2036   59.7306 H   0  0  0  0  0  0  0  0  0  0  0  0  # atno 27144 bound_to 27087
  210.2757    9.6608   65.3053 LP  0  0  0  0  0  0  0  0  0  0  0  0  # atno 27200 bound_to 667 
  209.5658   10.7751   70.2982 LP  0  0  0  0  0  0  0  0  0  0  0  0  # atno 27201 bound_to 670 
  210.7579   11.6035   69.3533 LP  0  0  0  0  0  0  0  0  0  0  0  0  # atno 27202 bound_to 670 
  212.0868   22.0577   63.5716 LP  0  0  0  0  0  0  0  0  0  0  0  0  # atno 27208 bound_to 26019
  212.0704   22.8720   62.1563 LP  0  0  0  0  0  0  0  0  0  0  0  0  # atno 27209 bound_to 26019
  205.5104   13.9890   63.2692 LP  0  0  0  0  0  0  0  0  0  0  0  0  # atno 27212 bound_to 27085
  205.3158   15.2244   64.3192 LP  0  0  0  0  0  0  0  0  0  0  0  0  # atno 27213 bound_to 27085
  209.0293   10.5491   68.4183 LP  0  0  0  0  0  0  0  0  0  0  0  0  # atno 27214 bound_to 758 
  206.5431   27.2669   76.0674 LP  0  0  0  0  0  0  0  0  0  0  0  0  # atno 27251 bound_to 18438
  205.9397   25.9522   75.3098 LP  0  0  0  0  0  0  0  0  0  0  0  0  # atno 27252 bound_to 18438
  209.7420   36.9746   72.8975 LP  0  0  0  0  0  0  0  0  0  0  0  0  # atno 27253 bound_to 18264
  210.6612   36.7451   74.2276 LP  0  0  0  0  0  0  0  0  0  0  0  0  # atno 27254 bound_to 18264
  204.9307   39.2520   68.5452 LP  0  0  0  0  0  0  0  0  0  0  0  0  # atno 27255 bound_to 10080
  205.2262   38.6156   70.0198 LP  0  0  0  0  0  0  0  0  0  0  0  0  # atno 27256 bound_to 10080
  207.2746   25.2719   76.8882 LP  0  0  0  0  0  0  0  0  0  0  0  0  # atno 27261 bound_to 16930
  208.1962   24.4622   77.9660 LP  0  0  0  0  0  0  0  0  0  0  0  0  # atno 27262 bound_to 16930
  214.2042   23.5039   75.0493 LP  0  0  0  0  0  0  0  0  0  0  0  0  # atno 27269 bound_to 11400
  215.6341   22.9587   75.6191 LP  0  0  0  0  0  0  0  0  0  0  0  0  # atno 27270 bound_to 11400

> <Gold.Score>
     Fitness  S(hb_ext) S(vdw_ext)  S(hb_int)    S(int)      intcor
     38.84       0.00      29.10       0.00      -1.17      -0.76

> <Gold.Goldscore.Fitness>
38.8410

> <Gold.Goldscore.Internal.Vdw>
-1.4985

> <Gold.Goldscore.Internal.Torsion>
-0.4361

> <Gold.Goldscore.External.Vdw>
29.0986

> <Gold.Goldscore.Internal.HBond>
0.0000

> <Gold.Goldscore.External.HBond>
0.0000

> <Gold.Goldscore.Internal.Correction>
-0.7650

> <Gold.Goldscore.Internal.Vdw.Weighted>
-1.4985

> <Gold.Goldscore.Internal.Torsion.Weighted>
-0.4361

> <Gold.Goldscore.External.Vdw.Weighted>
40.0106

> <Gold.Goldscore.Internal.HBond.Weighted>
0.0000

> <Gold.Goldscore.External.HBond.Weighted>
0.0000

> <Gold.Goldscore.Internal.Correction.Weighted>
-0.7650

> <Gold.Rescore>
     Score     S(PLP)   S(hbond)     S(cho)   S(metal)  DE(clash)   DE(tors)     intcor
     26.09     -29.38       0.00       0.00       0.00       0.07       1.61       ----

> <Gold.PLP.Fitness>
26.0887

> <Gold.PLP.PLP>
-29.3840

> <Gold.PLP.part.hbond>
0.0000

> <Gold.PLP.part.metal>
0.0000

> <Gold.PLP.part.buried>
-6.9354

> <Gold.PLP.part.nonpolar>
-27.3273

> <Gold.PLP.part.repulsive>
3.1193

> <Gold.PLP.ligand.clash>
0.0733

> <Gold.PLP.ligand.torsion>
1.6110

> <Gold.PLP.Chemscore.Hbond>
0.0000

> <Gold.PLP.Chemscore.CHOScore>
0.0000

> <Gold.PLP.Chemscore.Metal>
0.0000

> <Gold.PLP.Chemscore.Internal.Correction>
   9.000000E+99

