#       Name:                CT1002167954
#       Creating user name   hitesit
#       Creation time:       Sun Apr 16 22:52:59 2023


#       File generated by GOLD software.
#

@<TRIPOS>MOLECULE
CT1002167954|ligand_prepared|mol2|1|dock1
    29    30     1
SMALL
NO_CHARGES


@<TRIPOS>ATOM
      1 C1         208.9828  25.5683  69.9890 C.3            1 RES1               0.0000
      2 C2         208.4157  26.9654  69.6645 C.ar           1 RES1               0.0000
      3 C3         209.5885  25.0399  68.6920 C.2            1 RES1               0.0000
      4 C4         209.9946  25.7688  71.1118 C.2            1 RES1               0.0000
      5 C5         207.9177  24.5603  70.4800 C.3            1 RES1               0.0000
      6 C6         207.4382  27.5385  70.4724 C.ar           1 RES1               0.0000
      7 C7         208.8613  27.6930  68.5643 C.ar           1 RES1               0.0000
      8 N8         210.9486  25.0154  68.5939 N.am           1 RES1               0.0000
      9 O9         208.8835  24.6873  67.7546 O.2            1 RES1               0.0000
     10 N10        211.3136  25.5147  70.8405 N.am           1 RES1               0.0000
     11 O11        209.6637  26.1604  72.2242 O.2            1 RES1               0.0000
     12 C12        208.4285  23.1320  70.5869 C.3            1 RES1               0.0000
     13 C13        206.9268  28.7948  70.1924 C.ar           1 RES1               0.0000
     14 C14        208.3483  28.9492  68.2859 C.ar           1 RES1               0.0000
     15 C15        211.8403  25.1767  69.6237 C.2            1 RES1               0.0000
     16 C16        207.3817  29.5011  69.0993 C.ar           1 RES1               0.0000
     17 O17        213.0445  25.0178  69.4459 O.2            1 RES1               0.0000
     18 H18        207.5560  24.8805  71.4649 H              1 RES1               0.0000
     19 H19        207.0670  24.5801  69.7877 H              1 RES1               0.0000
     20 H20        207.0662  26.9966  71.3356 H              1 RES1               0.0000
     21 H21        209.6204  27.2782  67.9098 H              1 RES1               0.0000
     22 H22        211.3387  24.8630  67.6693 H              1 RES1               0.0000
     23 H23        211.9629  25.5839  71.6176 H              1 RES1               0.0000
     24 H24        207.6418  22.4661  70.9354 H              1 RES1               0.0000
     25 H25        208.7731  22.7722  69.6196 H              1 RES1               0.0000
     26 H26        209.2592  23.0708  71.2869 H              1 RES1               0.0000
     27 H27        206.1652  29.2242  70.8349 H              1 RES1               0.0000
     28 H28        208.7089  29.5012  67.4242 H              1 RES1               0.0000
     29 H29        206.9812  30.4854  68.8803 H              1 RES1               0.0000
@<TRIPOS>BOND
    1    1    2 1     
    2    1    3 1     
    3    1    4 1     
    4    1    5 1     
    5    2    6 ar    
    6    2    7 ar    
    7    3    8 1     
    8    3    9 2     
    9    4   10 1     
   10    4   11 2     
   11    5   12 1     
   12    5   18 1     
   13    5   19 1     
   14    6   13 ar    
   15    6   20 1     
   16    7   14 ar    
   17    7   21 1     
   18    8   15 1     
   19    8   22 1     
   20   10   15 1     
   21   10   23 1     
   22   12   24 1     
   23   12   25 1     
   24   12   26 1     
   25   13   16 ar    
   26   13   27 1     
   27   14   16 ar    
   28   14   28 1     
   29   15   17 2     
   30   16   29 1     
@<TRIPOS>SUBSTRUCTURE
      1 RES1           1
@<TRIPOS>SET
DONOR_HYDROGENS      STATIC     ATOMS    <user>   **** ""
2 22 23
ATOM$RED        STATIC     ATOMS    COLORGROUP SYSTEM
2 22 23
@<TRIPOS>COMMENT
> <Gold.Version>
2022.3.0

> <Gold.Id.Protein>
unknown|4v3u_clean|pdb

> <Gold.Protein.RotatedTorsions>
[  563  526  525  524 ] final   90.71 input   59.98 | X-H torsion
[  717  667  668  669 ] final  -33.36 input  100.61 | X-H torsion
[ 26073 26019 26018 26016 ] final -139.25 input   60.01 | X-H torsion
[ 27142 27085 27084 27080 ] final   65.21 input   60.01 | X-H torsion
[  795  758  759  760 ] final -166.08 input  102.90 | X-H torsion
[ 18483 18438 18437 18435 ] final   29.80 input   59.97 | X-H torsion
[ 18292 18264 18263 18260 ] final  129.75 input   59.98 | X-H torsion
[ 10113 10080 10079 10076 ] final  -54.05 input   60.03 | X-H torsion
[ 16984 16930 16929 16927 ] final  170.64 input   60.03 | X-H torsion
[ 11433 11400 11399 11396 ] final  158.82 input   59.99 | X-H torsion
[ 27144 27087 27086 27084 ] final  144.65 input   60.02 | X-H torsion
[ 27201  670  669  668 ] final  -93.95 input    0.00 | X-H torsion

> <Gold.Protein.ActiveResidues>
 LYS309  TRP311  GLU312  MET341  HIS342  TRP414  ALA417  ARG419  CYS420  VAL421 
 GLY422  ARG423  SER462  ALA463  SER482  GLN483  LEU484  ILE485  ARG486  ALA502 
 TRP566  TYR567  LEU569  PRO570  ALA571  VAL572  SER573  ASN574  MET575  PHE589 
 SER590  GLY591  TRP592  TYR593  MET594  GLU597  ILE598  ARG601  ASP602  ASP605 
 ARG608  TRP683  HIS697  GLU699  TYR711  HEM750  H4B760 

> <Gold.Protein.RotatedAtoms>
  215.9612   11.9285   67.1391 H   0  0  0  0  0  0  0  0  0  0  0  0  # atno 563  bound_to 526 
  216.1644   10.4172   67.7893 H   0  0  0  0  0  0  0  0  0  0  0  0  # atno 564  bound_to 526 
  216.7402   10.7515   66.2708 H   0  0  0  0  0  0  0  0  0  0  0  0  # atno 565  bound_to 526 
  209.4149    9.1067   66.0769 H   0  0  0  0  0  0  0  0  0  0  0  0  # atno 717  bound_to 667 
  208.0268   10.7251   68.0746 H   0  0  0  0  0  0  0  0  0  0  0  0  # atno 795  bound_to 758 
  205.8134   37.8950   69.4865 H   0  0  0  0  0  0  0  0  0  0  0  0  # atno 10113 bound_to 10080
  214.3195   22.2515   74.5928 H   0  0  0  0  0  0  0  0  0  0  0  0  # atno 11433 bound_to 11400
  207.9570   25.8333   76.7044 H   0  0  0  0  0  0  0  0  0  0  0  0  # atno 16984 bound_to 16930
  209.1387   36.7635   74.4735 H   0  0  0  0  0  0  0  0  0  0  0  0  # atno 18292 bound_to 18264
  206.2988   26.4197   75.1937 H   0  0  0  0  0  0  0  0  0  0  0  0  # atno 18483 bound_to 18438
  212.1045   22.1171   62.5483 H   0  0  0  0  0  0  0  0  0  0  0  0  # atno 26073 bound_to 26019
  205.0351   14.5769   63.5005 H   0  0  0  0  0  0  0  0  0  0  0  0  # atno 27142 bound_to 27085
  207.5885   15.1870   59.7991 H   0  0  0  0  0  0  0  0  0  0  0  0  # atno 27144 bound_to 27087
  209.4857   10.4652   64.9785 LP  0  0  0  0  0  0  0  0  0  0  0  0  # atno 27200 bound_to 667 
  210.6211   10.4580   69.8915 LP  0  0  0  0  0  0  0  0  0  0  0  0  # atno 27201 bound_to 670 
  209.7026   11.9206   69.7600 LP  0  0  0  0  0  0  0  0  0  0  0  0  # atno 27202 bound_to 670 
  212.0156   23.7335   62.7159 LP  0  0  0  0  0  0  0  0  0  0  0  0  # atno 27208 bound_to 26019
  212.0413   22.7731   64.0364 LP  0  0  0  0  0  0  0  0  0  0  0  0  # atno 27209 bound_to 26019
  206.0081   15.1118   64.6900 LP  0  0  0  0  0  0  0  0  0  0  0  0  # atno 27212 bound_to 27085
  206.4569   13.8351   63.7762 LP  0  0  0  0  0  0  0  0  0  0  0  0  # atno 27213 bound_to 27085
  209.0336    9.3103   67.8575 LP  0  0  0  0  0  0  0  0  0  0  0  0  # atno 27214 bound_to 758 
  205.4306   25.8385   76.4412 LP  0  0  0  0  0  0  0  0  0  0  0  0  # atno 27251 bound_to 18438
  206.2966   27.2119   76.6151 LP  0  0  0  0  0  0  0  0  0  0  0  0  # atno 27252 bound_to 18438
  209.5853   36.9767   72.9232 LP  0  0  0  0  0  0  0  0  0  0  0  0  # atno 27253 bound_to 18264
  210.7178   36.7645   74.0804 LP  0  0  0  0  0  0  0  0  0  0  0  0  # atno 27254 bound_to 18264
  205.3708   38.7088   68.1485 LP  0  0  0  0  0  0  0  0  0  0  0  0  # atno 27255 bound_to 10080
  204.8480   39.1987   69.6159 LP  0  0  0  0  0  0  0  0  0  0  0  0  # atno 27256 bound_to 10080
  207.3989   24.5579   77.5469 LP  0  0  0  0  0  0  0  0  0  0  0  0  # atno 27261 bound_to 16930
  208.9338   25.0728   77.7605 LP  0  0  0  0  0  0  0  0  0  0  0  0  # atno 27262 bound_to 16930
  214.5491   23.6900   75.3179 LP  0  0  0  0  0  0  0  0  0  0  0  0  # atno 27269 bound_to 11400
  215.6732   22.5137   75.4570 LP  0  0  0  0  0  0  0  0  0  0  0  0  # atno 27270 bound_to 11400

> <Gold.Score>
     Fitness  S(hb_ext) S(vdw_ext)  S(hb_int)    S(int)      intcor
     39.39       6.00      25.03       0.00      -1.02      -0.76

> <Gold.Goldscore.Fitness>
39.3916

> <Gold.Goldscore.Internal.Vdw>
-1.2788

> <Gold.Goldscore.Internal.Torsion>
-0.5077

> <Gold.Goldscore.External.Vdw>
25.0307

> <Gold.Goldscore.Internal.HBond>
0.0000

> <Gold.Goldscore.External.HBond>
5.9959

> <Gold.Goldscore.Internal.Correction>
-0.7650

> <Gold.Goldscore.Hbonds>
donor molecule, donor type, donor heavy atom, donor atom, acceptor molecule, acceptor atom, score
      L1  H     8    22       P1 26790  1.00

> <Gold.Goldscore.Internal.Vdw.Weighted>
-1.2788

> <Gold.Goldscore.Internal.Torsion.Weighted>
-0.5077

> <Gold.Goldscore.External.Vdw.Weighted>
34.4173

> <Gold.Goldscore.Internal.HBond.Weighted>
0.0000

> <Gold.Goldscore.External.HBond.Weighted>
5.9959

> <Gold.Goldscore.Internal.Correction.Weighted>
-0.7650

> <Gold.Rescore>
     Score     S(PLP)   S(hbond)     S(cho)   S(metal)  DE(clash)   DE(tors)     intcor
     19.61     -18.47       0.93       0.00       0.00       0.49       0.57       ----

> <Gold.PLP.Fitness>
19.6051

> <Gold.PLP.PLP>
-18.4667

> <Gold.PLP.part.hbond>
-2.0000

> <Gold.PLP.part.metal>
0.0000

> <Gold.PLP.part.buried>
5.0907

> <Gold.PLP.part.nonpolar>
-30.4003

> <Gold.PLP.part.repulsive>
7.2875

> <Gold.PLP.ligand.clash>
0.4944

> <Gold.PLP.ligand.torsion>
0.5730

> <Gold.PLP.Chemscore.Hbond>
0.9263

> <Gold.PLP.Chemscore.CHOScore>
0.0000

> <Gold.PLP.Chemscore.Metal>
0.0000

> <Gold.Chemscore.Hbonds>
donor molecule, donor type, donor heavy atom, donor atom, acceptor molecule, acceptor atom, score
      L1  H     8    22       P1 26790  1.00

> <Gold.PLP.Chemscore.Internal.Correction>
   9.000000E+99

