#       Name:                CT1002167954
#       Creating user name   hitesit
#       Creation time:       Sun Apr 16 22:53:05 2023


#       File generated by GOLD software.
#

@<TRIPOS>MOLECULE
CT1002167954|ligand_prepared|mol2|1|dock9
    29    30     1
SMALL
NO_CHARGES


@<TRIPOS>ATOM
      1 C1         208.0222  19.4045  71.0014 C.3            1 RES1               0.0000
      2 C2         206.9328  20.4959  71.0310 C.ar           1 RES1               0.0000
      3 C3         207.3012  18.0742  71.1983 C.2            1 RES1               0.0000
      4 C4         208.7239  19.5385  69.6545 C.2            1 RES1               0.0000
      5 C5         209.0876  19.5549  72.1122 C.3            1 RES1               0.0000
      6 C6         206.0168  20.6112  69.9897 C.ar           1 RES1               0.0000
      7 C7         206.8298  21.3914  72.0922 C.ar           1 RES1               0.0000
      8 N8         207.1675  17.2612  70.1115 N.am           1 RES1               0.0000
      9 O9         206.8227  17.7608  72.2813 O.2            1 RES1               0.0000
     10 N10        208.5987  18.5081  68.7599 N.am           1 RES1               0.0000
     11 O11        209.3703  20.5344  69.3533 O.2            1 RES1               0.0000
     12 C12        210.2460  18.5778  71.9870 C.3            1 RES1               0.0000
     13 C13        205.0316  21.5845  70.0098 C.ar           1 RES1               0.0000
     14 C14        205.8440  22.3642  72.1102 C.ar           1 RES1               0.0000
     15 C15        207.8270  17.3889  68.9155 C.2            1 RES1               0.0000
     16 C16        204.9442  22.4613  71.0702 C.ar           1 RES1               0.0000
     17 O17        207.7222  16.5318  68.0429 O.2            1 RES1               0.0000
     18 H18        209.4837  20.5775  72.0855 H              1 RES1               0.0000
     19 H19        208.6052  19.4075  73.0864 H              1 RES1               0.0000
     20 H20        206.0715  19.9317  69.1457 H              1 RES1               0.0000
     21 H21        207.5275  21.3344  72.9208 H              1 RES1               0.0000
     22 H22        206.5168  16.4867  70.1958 H              1 RES1               0.0000
     23 H23        209.1302  18.5821  67.8983 H              1 RES1               0.0000
     24 H24        210.9642  18.7261  72.7907 H              1 RES1               0.0000
     25 H25        209.8910  17.5505  72.0350 H              1 RES1               0.0000
     26 H26        210.7643  18.7135  71.0400 H              1 RES1               0.0000
     27 H27        204.3268  21.6576  69.1882 H              1 RES1               0.0000
     28 H28        205.7793  23.0525  72.9465 H              1 RES1               0.0000
     29 H29        204.1722  23.2234  71.0859 H              1 RES1               0.0000
@<TRIPOS>BOND
    1    1    2 1     
    2    1    3 1     
    3    1    4 1     
    4    1    5 1     
    5    2    6 ar    
    6    2    7 ar    
    7    3    8 1     
    8    3    9 2     
    9    4   10 1     
   10    4   11 2     
   11    5   12 1     
   12    5   18 1     
   13    5   19 1     
   14    6   13 ar    
   15    6   20 1     
   16    7   14 ar    
   17    7   21 1     
   18    8   15 1     
   19    8   22 1     
   20   10   15 1     
   21   10   23 1     
   22   12   24 1     
   23   12   25 1     
   24   12   26 1     
   25   13   16 ar    
   26   13   27 1     
   27   14   16 ar    
   28   14   28 1     
   29   15   17 2     
   30   16   29 1     
@<TRIPOS>SUBSTRUCTURE
      1 RES1           1
@<TRIPOS>SET
DONOR_HYDROGENS      STATIC     ATOMS    <user>   **** ""
2 22 23
ATOM$RED        STATIC     ATOMS    COLORGROUP SYSTEM
2 22 23
@<TRIPOS>COMMENT
> <Gold.Version>
2022.3.0

> <Gold.Id.Protein>
unknown|4v3u_clean|pdb

> <Gold.Protein.RotatedTorsions>
[  563  526  525  524 ] final   -1.23 input   59.98 | X-H torsion
[  717  667  668  669 ] final   15.22 input  100.61 | X-H torsion
[ 26073 26019 26018 26016 ] final  -57.35 input   60.01 | X-H torsion
[ 27142 27085 27084 27080 ] final -127.08 input   60.01 | X-H torsion
[  795  758  759  760 ] final  110.44 input  102.90 | X-H torsion
[ 18483 18438 18437 18435 ] final  -44.22 input   59.97 | X-H torsion
[ 18292 18264 18263 18260 ] final  -86.79 input   59.98 | X-H torsion
[ 10113 10080 10079 10076 ] final   63.81 input   60.03 | X-H torsion
[ 16984 16930 16929 16927 ] final   97.81 input   60.03 | X-H torsion
[ 11433 11400 11399 11396 ] final   85.41 input   59.99 | X-H torsion
[ 27144 27087 27086 27084 ] final   62.43 input   60.02 | X-H torsion
[ 27201  670  669  668 ] final   97.27 input    0.00 | X-H torsion

> <Gold.Protein.ActiveResidues>
 LYS309  TRP311  GLU312  MET341  HIS342  TRP414  ALA417  ARG419  CYS420  VAL421 
 GLY422  ARG423  SER462  ALA463  SER482  GLN483  LEU484  ILE485  ARG486  ALA502 
 TRP566  TYR567  LEU569  PRO570  ALA571  VAL572  SER573  ASN574  MET575  PHE589 
 SER590  GLY591  TRP592  TYR593  MET594  GLU597  ILE598  ARG601  ASP602  ASP605 
 ARG608  TRP683  HIS697  GLU699  TYR711  HEM750  H4B760 

> <Gold.Protein.RotatedAtoms>
  216.6319   11.1942   66.1879 H   0  0  0  0  0  0  0  0  0  0  0  0  # atno 563  bound_to 526 
  215.8432   11.7327   67.5431 H   0  0  0  0  0  0  0  0  0  0  0  0  # atno 564  bound_to 526 
  216.3912   10.1696   67.4679 H   0  0  0  0  0  0  0  0  0  0  0  0  # atno 565  bound_to 526 
  208.7922    9.4807   66.0223 H   0  0  0  0  0  0  0  0  0  0  0  0  # atno 717  bound_to 667 
  207.8324    9.6972   67.5214 H   0  0  0  0  0  0  0  0  0  0  0  0  # atno 795  bound_to 758 
  204.8630   39.1777   69.6409 H   0  0  0  0  0  0  0  0  0  0  0  0  # atno 10113 bound_to 10080
  214.0787   23.3024   74.8930 H   0  0  0  0  0  0  0  0  0  0  0  0  # atno 11433 bound_to 11400
  207.2141   25.0748   77.0332 H   0  0  0  0  0  0  0  0  0  0  0  0  # atno 16984 bound_to 16930
  210.7402   36.8161   73.7023 H   0  0  0  0  0  0  0  0  0  0  0  0  # atno 18292 bound_to 18264
  205.6110   25.7142   75.7408 H   0  0  0  0  0  0  0  0  0  0  0  0  # atno 18483 bound_to 18438
  212.0768   22.2212   63.7710 H   0  0  0  0  0  0  0  0  0  0  0  0  # atno 26073 bound_to 26019
  206.6658   14.2870   64.3503 H   0  0  0  0  0  0  0  0  0  0  0  0  # atno 27142 bound_to 27085
  208.1553   15.8007   60.7032 H   0  0  0  0  0  0  0  0  0  0  0  0  # atno 27144 bound_to 27087
  210.0927   10.1006   65.0317 LP  0  0  0  0  0  0  0  0  0  0  0  0  # atno 27200 bound_to 667 
  209.5878   11.8372   69.8524 LP  0  0  0  0  0  0  0  0  0  0  0  0  # atno 27201 bound_to 670 
  210.7359   10.5414   69.7991 LP  0  0  0  0  0  0  0  0  0  0  0  0  # atno 27202 bound_to 670 
  212.0830   22.6161   62.1922 LP  0  0  0  0  0  0  0  0  0  0  0  0  # atno 27208 bound_to 26019
  212.0017   23.7856   63.3290 LP  0  0  0  0  0  0  0  0  0  0  0  0  # atno 27209 bound_to 26019
  205.4827   14.0082   63.2685 LP  0  0  0  0  0  0  0  0  0  0  0  0  # atno 27212 bound_to 27085
  205.3400   15.2305   64.3419 LP  0  0  0  0  0  0  0  0  0  0  0  0  # atno 27213 bound_to 27085
  209.2220   10.3063   68.3935 LP  0  0  0  0  0  0  0  0  0  0  0  0  # atno 27214 bound_to 758 
  205.8472   26.7510   76.9725 LP  0  0  0  0  0  0  0  0  0  0  0  0  # atno 27251 bound_to 18438
  206.5728   27.0101   75.5327 LP  0  0  0  0  0  0  0  0  0  0  0  0  # atno 27252 bound_to 18438
  209.4507   36.7229   74.6906 LP  0  0  0  0  0  0  0  0  0  0  0  0  # atno 27253 bound_to 18264
  209.2401   36.9654   73.0895 LP  0  0  0  0  0  0  0  0  0  0  0  0  # atno 27254 bound_to 18264
  205.8260   37.8788   69.4571 LP  0  0  0  0  0  0  0  0  0  0  0  0  # atno 27255 bound_to 10080
  205.3499   38.7370   68.1519 LP  0  0  0  0  0  0  0  0  0  0  0  0  # atno 27256 bound_to 10080
  208.4296   24.5580   77.9837 LP  0  0  0  0  0  0  0  0  0  0  0  0  # atno 27261 bound_to 16930
  208.6514   25.8366   76.9925 LP  0  0  0  0  0  0  0  0  0  0  0  0  # atno 27262 bound_to 16930
  215.5127   23.2139   75.6570 LP  0  0  0  0  0  0  0  0  0  0  0  0  # atno 27269 bound_to 11400
  214.9521   21.9316   74.8156 LP  0  0  0  0  0  0  0  0  0  0  0  0  # atno 27270 bound_to 11400

> <Gold.Score>
     Fitness  S(hb_ext) S(vdw_ext)  S(hb_int)    S(int)      intcor
     34.10       4.89      21.26       0.00      -0.03      -0.76

> <Gold.Goldscore.Fitness>
34.0967

> <Gold.Goldscore.Internal.Vdw>
-0.3512

> <Gold.Goldscore.Internal.Torsion>
-0.4359

> <Gold.Goldscore.External.Vdw>
21.2621

> <Gold.Goldscore.Internal.HBond>
0.0000

> <Gold.Goldscore.External.HBond>
4.8908

> <Gold.Goldscore.Internal.Correction>
-0.7576

> <Gold.Goldscore.Hbonds>
donor molecule, donor type, donor heavy atom, donor atom, acceptor molecule, acceptor atom, score
      P1  H 27079 27165       L1    17  0.01
      P1  H 18901 18946       L1    17  0.35
      P1  H 19320 19378       L1     9  0.39
      L1  H     8    22       P1 19170  0.08

> <Gold.Goldscore.Internal.Vdw.Weighted>
-0.3512

> <Gold.Goldscore.Internal.Torsion.Weighted>
-0.4359

> <Gold.Goldscore.External.Vdw.Weighted>
29.2354

> <Gold.Goldscore.Internal.HBond.Weighted>
0.0000

> <Gold.Goldscore.External.HBond.Weighted>
4.8908

> <Gold.Goldscore.Internal.Correction.Weighted>
-0.7576

> <Gold.Rescore>
     Score     S(PLP)   S(hbond)     S(cho)   S(metal)  DE(clash)   DE(tors)     intcor
     28.48     -24.29       1.40       0.00       0.00       0.00       0.01       ----

> <Gold.PLP.Fitness>
28.4758

> <Gold.PLP.PLP>
-24.2873

> <Gold.PLP.part.hbond>
-2.2129

> <Gold.PLP.part.metal>
0.0000

> <Gold.PLP.part.buried>
-4.9723

> <Gold.PLP.part.nonpolar>
-19.0556

> <Gold.PLP.part.repulsive>
1.9738

> <Gold.PLP.ligand.clash>
0.0000

> <Gold.PLP.ligand.torsion>
0.0097

> <Gold.PLP.Chemscore.Hbond>
1.4026

> <Gold.PLP.Chemscore.CHOScore>
0.0000

> <Gold.PLP.Chemscore.Metal>
0.0000

> <Gold.Chemscore.Hbonds>
donor molecule, donor type, donor heavy atom, donor atom, acceptor molecule, acceptor atom, score
      L1  H     8    22       P1 19170  0.06
      P1  H 18901 18946       L1    17  0.49
      P1  H 19320 19378       L1     9  0.83

> <Gold.PLP.Chemscore.Internal.Correction>
   9.000000E+99

