#       Name:                CT1002167954
#       Creating user name   hitesit
#       Creation time:       Sun Apr 16 22:51:48 2023


#       File generated by GOLD software.
#

@<TRIPOS>MOLECULE
CT1002167954|ligand_prepared|mol2|1|dock1
    29    30     1
SMALL
NO_CHARGES


@<TRIPOS>ATOM
      1 C1         -13.5080   4.9894  16.3776 C.3            1 RES1               0.0000
      2 C2         -13.1823   3.8050  17.3103 C.ar           1 RES1               0.0000
      3 C3         -14.4918   4.4588  15.3389 C.2            1 RES1               0.0000
      4 C4         -14.0760   6.0895  17.2675 C.2            1 RES1               0.0000
      5 C5         -12.2750   5.5609  15.6395 C.3            1 RES1               0.0000
      6 C6         -12.0856   2.9859  17.0590 C.ar           1 RES1               0.0000
      7 C7         -13.9662   3.5211  18.4254 C.ar           1 RES1               0.0000
      8 N8         -15.7960   4.8414  15.4505 N.am           1 RES1               0.0000
      9 O9         -14.1360   3.6850  14.4586 O.2            1 RES1               0.0000
     10 N10        -15.3872   6.4460  17.0900 N.am           1 RES1               0.0000
     11 O11        -13.4046   6.6393  18.1319 O.2            1 RES1               0.0000
     12 C12        -12.5585   6.8446  14.8753 C.3            1 RES1               0.0000
     13 C13        -11.7819   1.9233  17.8938 C.ar           1 RES1               0.0000
     14 C14        -13.6608   2.4578  19.2588 C.ar           1 RES1               0.0000
     15 C15        -16.2815   5.8505  16.2428 C.2            1 RES1               0.0000
     16 C16        -12.5689   1.6588  18.9944 C.ar           1 RES1               0.0000
     17 O17        -17.4591   6.1915  16.1787 O.2            1 RES1               0.0000
     18 H18        -11.4827   5.7543  16.3731 H              1 RES1               0.0000
     19 H19        -11.9035   4.8058  14.9358 H              1 RES1               0.0000
     20 H20        -11.4562   3.1772  16.1962 H              1 RES1               0.0000
     21 H21        -14.8308   4.1356  18.6524 H              1 RES1               0.0000
     22 H22        -16.4730   4.3297  14.8936 H              1 RES1               0.0000
     23 H23        -15.7280   7.2278  17.6403 H              1 RES1               0.0000
     24 H24        -11.6605   7.2026  14.3761 H              1 RES1               0.0000
     25 H25        -13.3244   6.6826  14.1198 H              1 RES1               0.0000
     26 H26        -12.9062   7.6254  15.5485 H              1 RES1               0.0000
     27 H27        -10.9222   1.2967  17.6805 H              1 RES1               0.0000
     28 H28        -14.2833   2.2530  20.1235 H              1 RES1               0.0000
     29 H29        -12.3305   0.8266  19.6484 H              1 RES1               0.0000
@<TRIPOS>BOND
    1    1    2 1     
    2    1    3 1     
    3    1    4 1     
    4    1    5 1     
    5    2    6 ar    
    6    2    7 ar    
    7    3    8 1     
    8    3    9 2     
    9    4   10 1     
   10    4   11 2     
   11    5   12 1     
   12    5   18 1     
   13    5   19 1     
   14    6   13 ar    
   15    6   20 1     
   16    7   14 ar    
   17    7   21 1     
   18    8   15 1     
   19    8   22 1     
   20   10   15 1     
   21   10   23 1     
   22   12   24 1     
   23   12   25 1     
   24   12   26 1     
   25   13   16 ar    
   26   13   27 1     
   27   14   16 ar    
   28   14   28 1     
   29   15   17 2     
   30   16   29 1     
@<TRIPOS>SUBSTRUCTURE
      1 RES1           1
@<TRIPOS>SET
DONOR_HYDROGENS      STATIC     ATOMS    <user>   **** ""
2 22 23
ATOM$RED        STATIC     ATOMS    COLORGROUP SYSTEM
2 22 23
@<TRIPOS>COMMENT
> <Gold.Version>
2022.3.0

> <Gold.Id.Protein>
unknown|3mvj_clean|pdb

> <Gold.Protein.RotatedTorsions>
[ 11826 11799 11798 11795 ] final   -4.67 input   60.01 | X-H torsion
[ 11911 11856 11855 11854 ] final  177.53 input   60.02 | X-H torsion
[ 10977 10959 10958 10956 ] final   48.26 input   60.00 | X-H torsion
[ 10969 10948 10949 10950 ] final  160.67 input   32.02 | X-H torsion
[ 10737 10719 10718 10716 ] final -130.48 input   60.01 | X-H torsion
[ 12076 12056 12057 12058 ] final -116.25 input   63.02 | X-H torsion
[ 10918 10911 10912 10913 ] final  170.87 input  -92.90 | X-H torsion
[ 6164 6140 6141 6142 ] final  130.41 input   39.58 | X-H torsion
[ 6112 6105 6106 6107 ] final -162.63 input  -69.34 | X-H torsion
[ 5955 5918 5919 5920 ] final  113.30 input  125.26 | X-H torsion
[ 6027 5990 5991 5992 ] final -129.97 input  110.40 | X-H torsion
[ 6075 6056 6057 6058 ] final  -97.73 input  107.04 | X-H torsion
[ 11686 11631 11630 11629 ] final  -78.46 input   60.02 | X-H torsion
[ 11211 11201 11202 11203 ] final -121.10 input   18.84 | X-H torsion
[ 11249 11237 11238 11239 ] final   95.01 input  111.29 | X-H torsion
[ 11173 11153 11154 11155 ] final   31.04 input   30.50 | X-H torsion
[ 11292 11275 11276 11277 ] final  -29.10 input   58.53 | X-H torsion
[ 9451 9430 9431 9432 ] final   -5.63 input  110.06 | X-H torsion
[ 11493 11474 11475 11476 ] final  171.59 input  115.95 | X-H torsion
[ 11385 11366 11367 11368 ] final   84.85 input  117.79 | X-H torsion
[ 11568 11550 11549 11547 ] final   67.65 input   59.97 | X-H torsion
[ 9369 9348 9346 9343 ] final -124.02 input   60.02 | X-H torsion
[ 9511 9481 9482 9483 ] final  -63.17 input   75.78 | X-H torsion
[ 15475 15466 15465 15463 ] final   65.72 input   60.00 | X-H torsion
[ 7755 7731 7730 7729 ] final   35.67 input   60.02 | X-H torsion
[ 7846 7831 7832 7833 ] final  132.34 input  113.97 | X-H torsion
[ 5737 5717 5718 5719 ] final -156.75 input  137.93 | X-H torsion
[ 5778 5767 5768 5769 ] final  153.50 input  116.46 | X-H torsion
[ 1839 1818 1819 1820 ] final   59.67 input   43.70 | X-H torsion
[ 5782 5772 5771 5768 ] final  116.66 input   59.97 | X-H torsion
[ 15411 15403 15404 15405 ] final  -38.08 input  102.24 | X-H torsion
[ 1801 1791 1792 1793 ] final   97.98 input  -10.55 | X-H torsion
[ 5632 5617 5618 5619 ] final -167.99 input   93.34 | X-H torsion
[ 7884 7874 7875 7876 ] final -144.09 input   68.03 | X-H torsion
[ 1845 1824 1822 1819 ] final  -52.34 input   60.02 | X-H torsion
[ 1864 1854 1855 1856 ] final -123.77 input   57.50 | X-H torsion
[ 9363 9342 9343 9344 ] final  -35.86 input   55.58 | X-H torsion
[ 9519 9492 9491 9489 ] final  102.15 input   60.02 | X-H torsion
[ 7745 7723 7724 7725 ] final   -8.72 input   17.81 | X-H torsion
[ 1896 1884 1883 1880 ] final   27.80 input   60.01 | X-H torsion
[ 9325 9315 9316 9317 ] final  124.11 input  -36.21 | X-H torsion
[ 1892 1879 1880 1881 ] final   78.50 input   98.21 | X-H torsion
[ 9302 9286 9287 9288 ] final  105.83 input   37.00 | X-H torsion
[ 9263 9233 9234 9235 ] final   -7.64 input   95.32 | X-H torsion
[ 3370 3362 3363 3364 ] final   68.26 input   97.92 | X-H torsion
[ 1947 1922 1923 1924 ] final   26.97 input  104.43 | X-H torsion
[ 12159 12148 12149 12150 ] final  104.60 input  116.04 | X-H torsion
[ 11673 11649 11648 11647 ] final -166.57 input   59.99 | X-H torsion
[ 12008 11984 11985 11986 ] final   74.92 input   61.04 | X-H torsion
[ 11113 11093 11094 11095 ] final   81.50 input   39.50 | X-H torsion
[ 7924 7916 7917 7918 ] final -137.44 input   66.66 | X-H torsion
[ 8650 8630 8631 8632 ] final   78.35 input   75.31 | X-H torsion
[ 9566 9536 9537 9538 ] final  164.30 input  103.50 | X-H torsion
[ 16472 10886 10885 10884 ] final  161.44 input    0.00 | X-H torsion
[ 16475 11004 11003 11002 ] final  164.30 input    0.00 | X-H torsion
[ 16477 10914 10913 10912 ] final -136.67 input    0.00 | X-H torsion
[ 16479 10951 10950 10949 ] final   73.08 input   -0.00 | X-H torsion
[ 16484 11987 11986 11985 ] final -128.31 input    0.00 | X-H torsion
[ 16486 12059 12058 12057 ] final   30.78 input   -0.00 | X-H torsion
[ 16490 11046 11045 11044 ] final -149.45 input    0.00 | X-H torsion
[ 16500 6108 6107 6106 ] final   24.87 input    0.00 | X-H torsion
[ 16503 5921 5920 5919 ] final   64.43 input   -0.00 | X-H torsion
[ 16506 6059 6058 6057 ] final   78.38 input    0.00 | X-H torsion
[ 16510 5858 5857 5856 ] final  140.24 input    0.00 | X-H torsion
[ 16518 5993 5992 5991 ] final -157.95 input   -0.00 | X-H torsion
[ 16523 11156 11155 11154 ] final  164.01 input    0.00 | X-H torsion
[ 16528 11204 11203 11202 ] final -162.14 input    0.00 | X-H torsion
[ 16540 11096 11095 11094 ] final  -62.33 input   -0.00 | X-H torsion
[ 16544 10768 10767 10766 ] final -174.91 input   -0.00 | X-H torsion
[ 16552 11240 11239 11238 ] final -146.59 input    0.00 | X-H torsion
[ 16558 11278 11277 11276 ] final   14.88 input   -0.00 | X-H torsion
[ 16562 11325 11324 11323 ] final  -24.44 input   -0.00 | X-H torsion
[ 16566 9387 9386 9385 ] final   86.63 input   -0.00 | X-H torsion
[ 16570 9345 9344 9343 ] final  135.89 input    0.00 | X-H torsion
[ 16579 5720 5719 5718 ] final  102.11 input    0.00 | X-H torsion
[ 16592 1821 1820 1819 ] final  -47.03 input    0.00 | X-H torsion
[ 16594 7834 7833 7832 ] final   20.54 input    0.00 | X-H torsion
[ 16600 1745 1744 1743 ] final  110.61 input    0.00 | X-H torsion
[ 16608 5620 5619 5618 ] final  126.27 input   -0.00 | X-H torsion
[ 16610 7788 7787 7786 ] final   14.97 input   -0.00 | X-H torsion
[ 16613 1794 1793 1792 ] final -172.10 input   -0.00 | X-H torsion
[ 16622 9318 9317 9316 ] final  -86.21 input   -0.00 | X-H torsion
[ 16627 9433 9432 9431 ] final -145.41 input    0.00 | X-H torsion
[ 16631 7667 7666 7665 ] final   50.12 input   -0.00 | X-H torsion
[ 16635 7726 7725 7724 ] final  -32.76 input    0.00 | X-H torsion
[ 16637 10539 10538 10537 ] final   29.06 input   -0.00 | X-H torsion
[ 16643 1857 1856 1855 ] final  142.77 input    0.00 | X-H torsion
[ 16645 7565 7564 7563 ] final  -44.67 input    0.00 | X-H torsion
[ 16647 9289 9288 9287 ] final -134.12 input    0.00 | X-H torsion
[ 16649 9236 9235 9234 ] final  133.25 input    0.00 | X-H torsion
[ 16655 3365 3364 3363 ] final   68.53 input    0.00 | X-H torsion

> <Gold.Protein.ActiveResidues>
 LEU49   GLY50   THR51   GLY52   SER53   PHE54   VAL57   LEU82   LYS83   GLN84  
 HIS87   GLU127  PHE129  SER130  LEU132  ARG133  ARG134  ILE135  GLY136  ARG137 
 ARG165  ASP166  LEU167  LYS168  PRO169  GLU170  ASN171  LEU172  LEU173  ASP184 
 GLY186  PHE187  TPO197  LEU198  CYS199  GLY200  THR201  PRO202  GLU203  TYR204 
 LEU205  ILE209  ILE210  VAL226  LEU227  TYR229  GLU230  ALA233  GLY234  TYR235 
 PRO236  PRO237  PHE238  PHE239  ALA240  ASP241  GLN242  PRO243  ILE244  GLN245 
 ILE246  TYR247  GLU248  LYS249  ILE250  VAL251  SER252  LYS254  ARG256  PHE257 
 PRO258  SER259  PHE327  ASP328  TYR330 

> <Gold.Protein.RotatedAtoms>
    0.6369  -14.7970   20.5646 H   0  0  0  0  0  0  0  0  0  0  0  0  # atno 1801 bound_to 1791
   -1.1248  -13.2661   24.5724 H   0  0  0  0  0  0  0  0  0  0  0  0  # atno 1839 bound_to 1818
   -1.0622  -13.6877   28.0501 H   0  0  0  0  0  0  0  0  0  0  0  0  # atno 1845 bound_to 1824
   -2.6037  -15.1705   26.7266 H   0  0  0  0  0  0  0  0  0  0  0  0  # atno 1864 bound_to 1854
   -5.3802  -17.2237   29.8644 H   0  0  0  0  0  0  0  0  0  0  0  0  # atno 1892 bound_to 1879
   -5.6812  -15.6871   31.4714 H   0  0  0  0  0  0  0  0  0  0  0  0  # atno 1896 bound_to 1884
   -3.9408  -19.0572   29.9725 H   0  0  0  0  0  0  0  0  0  0  0  0  # atno 1947 bound_to 1922
   -7.5706  -24.7445   35.5450 H   0  0  0  0  0  0  0  0  0  0  0  0  # atno 3370 bound_to 3362
   -3.9836  -10.9608   13.6755 H   0  0  0  0  0  0  0  0  0  0  0  0  # atno 5632 bound_to 5617
   -9.6982   -8.0903   14.7043 H   0  0  0  0  0  0  0  0  0  0  0  0  # atno 5737 bound_to 5717
   -6.3316   -6.4770   15.9484 H   0  0  0  0  0  0  0  0  0  0  0  0  # atno 5778 bound_to 5767
   -3.3332   -5.7313   13.5138 H   0  0  0  0  0  0  0  0  0  0  0  0  # atno 5782 bound_to 5772
   -8.6409   -2.4185   15.0357 H   0  0  0  0  0  0  0  0  0  0  0  0  # atno 5955 bound_to 5918
   -7.0519    0.4103   15.4351 H   0  0  0  0  0  0  0  0  0  0  0  0  # atno 6027 bound_to 5990
   -6.9219    1.7705   12.1464 H   0  0  0  0  0  0  0  0  0  0  0  0  # atno 6075 bound_to 6056
   -9.3261    2.6526   12.7951 H   0  0  0  0  0  0  0  0  0  0  0  0  # atno 6112 bound_to 6105
  -13.2771    3.0369   12.0232 H   0  0  0  0  0  0  0  0  0  0  0  0  # atno 6164 bound_to 6140
  -14.7289  -13.4109   17.3260 H   0  0  0  0  0  0  0  0  0  0  0  0  # atno 7745 bound_to 7723
  -12.8334  -12.0472   24.3498 H   0  0  0  0  0  0  0  0  0  0  0  0  # atno 7755 bound_to 7731
  -11.8356  -13.3611   24.5094 H   0  0  0  0  0  0  0  0  0  0  0  0  # atno 7756 bound_to 7731
  -11.2212  -11.9119   23.9880 H   0  0  0  0  0  0  0  0  0  0  0  0  # atno 7757 bound_to 7731
  -11.1792   -9.7779   18.3720 H   0  0  0  0  0  0  0  0  0  0  0  0  # atno 7846 bound_to 7831
   -9.6090  -12.5890   18.1846 H   0  0  0  0  0  0  0  0  0  0  0  0  # atno 7884 bound_to 7874
  -10.5647  -14.3693   15.5058 H   0  0  0  0  0  0  0  0  0  0  0  0  # atno 7924 bound_to 7916
  -13.5842  -21.8685   22.7484 H   0  0  0  0  0  0  0  0  0  0  0  0  # atno 8650 bound_to 8630
  -20.6979  -21.2446   30.8279 H   0  0  0  0  0  0  0  0  0  0  0  0  # atno 9263 bound_to 9233
  -20.1035  -19.7440   29.1032 H   0  0  0  0  0  0  0  0  0  0  0  0  # atno 9302 bound_to 9286
  -18.4879  -17.1140   27.5474 H   0  0  0  0  0  0  0  0  0  0  0  0  # atno 9325 bound_to 9315
  -17.9193  -13.7694   26.1743 H   0  0  0  0  0  0  0  0  0  0  0  0  # atno 9363 bound_to 9342
  -13.6695  -12.7615   24.5933 H   0  0  0  0  0  0  0  0  0  0  0  0  # atno 9369 bound_to 9348
  -18.9320   -9.2737   25.7406 H   0  0  0  0  0  0  0  0  0  0  0  0  # atno 9451 bound_to 9430
  -20.3836   -8.9407   24.1006 H   0  0  0  0  0  0  0  0  0  0  0  0  # atno 9511 bound_to 9481
  -16.3308   -8.1729   17.6287 H   0  0  0  0  0  0  0  0  0  0  0  0  # atno 9519 bound_to 9492
  -20.7074  -11.2860   24.8436 H   0  0  0  0  0  0  0  0  0  0  0  0  # atno 9566 bound_to 9536
  -24.6312    1.0493   18.5864 H   0  0  0  0  0  0  0  0  0  0  0  0  # atno 10737 bound_to 10719
  -17.0582    0.9819   13.3900 H   0  0  0  0  0  0  0  0  0  0  0  0  # atno 10918 bound_to 10911
  -16.3690    1.4577   16.8304 H   0  0  0  0  0  0  0  0  0  0  0  0  # atno 10969 bound_to 10948
  -22.3195    5.0394   18.2392 H   0  0  0  0  0  0  0  0  0  0  0  0  # atno 10977 bound_to 10959
  -22.6025   -3.3060   22.2827 H   0  0  0  0  0  0  0  0  0  0  0  0  # atno 11113 bound_to 11093
  -21.6807   -0.5600   25.4920 H   0  0  0  0  0  0  0  0  0  0  0  0  # atno 11173 bound_to 11153
  -19.2070   -0.1259   27.3851 H   0  0  0  0  0  0  0  0  0  0  0  0  # atno 11211 bound_to 11201
  -18.3077    1.0254   31.8257 H   0  0  0  0  0  0  0  0  0  0  0  0  # atno 11249 bound_to 11237
  -17.4062   -1.4131   32.0815 H   0  0  0  0  0  0  0  0  0  0  0  0  # atno 11292 bound_to 11275
  -19.5888   -5.2650   34.6947 H   0  0  0  0  0  0  0  0  0  0  0  0  # atno 11385 bound_to 11366
  -21.2753   -3.0674   31.2815 H   0  0  0  0  0  0  0  0  0  0  0  0  # atno 11493 bound_to 11474
  -18.6477   -9.8663   31.5096 H   0  0  0  0  0  0  0  0  0  0  0  0  # atno 11568 bound_to 11550
  -24.5458    3.0084   27.5380 H   0  0  0  0  0  0  0  0  0  0  0  0  # atno 11673 bound_to 11649
  -25.5398    2.1009   28.5064 H   0  0  0  0  0  0  0  0  0  0  0  0  # atno 11674 bound_to 11649
  -24.0364    2.5440   29.0461 H   0  0  0  0  0  0  0  0  0  0  0  0  # atno 11675 bound_to 11649
   -8.4842    8.1497   25.3992 H   0  0  0  0  0  0  0  0  0  0  0  0  # atno 11686 bound_to 11631
   -7.9897    9.3211   26.4619 H   0  0  0  0  0  0  0  0  0  0  0  0  # atno 11687 bound_to 11631
   -9.3667    8.4525   26.7696 H   0  0  0  0  0  0  0  0  0  0  0  0  # atno 11688 bound_to 11631
  -12.6993   16.8408   22.4082 H   0  0  0  0  0  0  0  0  0  0  0  0  # atno 11826 bound_to 11799
  -18.1346   16.3837   24.4199 H   0  0  0  0  0  0  0  0  0  0  0  0  # atno 11911 bound_to 11856
  -16.7994   15.4695   24.0598 H   0  0  0  0  0  0  0  0  0  0  0  0  # atno 11912 bound_to 11856
  -17.8060   15.0151   25.2962 H   0  0  0  0  0  0  0  0  0  0  0  0  # atno 11913 bound_to 11856
  -27.7846    1.0513   20.2267 H   0  0  0  0  0  0  0  0  0  0  0  0  # atno 12008 bound_to 11984
  -27.4757    2.6390   17.4943 H   0  0  0  0  0  0  0  0  0  0  0  0  # atno 12076 bound_to 12056
  -24.4089    7.8696   13.1147 H   0  0  0  0  0  0  0  0  0  0  0  0  # atno 12159 bound_to 12148
    2.1013   -8.2867   17.2943 H   0  0  0  0  0  0  0  0  0  0  0  0  # atno 15411 bound_to 15403
   -1.7654  -10.9271   21.2448 H   0  0  0  0  0  0  0  0  0  0  0  0  # atno 15475 bound_to 15466
  -12.5866   15.2513   22.7378 LP  0  0  0  0  0  0  0  0  0  0  0  0  # atno 16466 bound_to 11799
  -13.6103   16.1946   23.5916 LP  0  0  0  0  0  0  0  0  0  0  0  0  # atno 16467 bound_to 11799
  -22.2778    4.3029   16.7886 LP  0  0  0  0  0  0  0  0  0  0  0  0  # atno 16468 bound_to 10959
  -21.3964    5.6530   17.0476 LP  0  0  0  0  0  0  0  0  0  0  0  0  # atno 16469 bound_to 10959
  -16.6946    3.2074   14.9613 LP  0  0  0  0  0  0  0  0  0  0  0  0  # atno 16472 bound_to 10886
  -18.0108    3.7298   13.9639 LP  0  0  0  0  0  0  0  0  0  0  0  0  # atno 16473 bound_to 10886
  -17.2797    0.0408   16.3449 LP  0  0  0  0  0  0  0  0  0  0  0  0  # atno 16474 bound_to 10948
  -21.4934   -0.0951   21.0219 LP  0  0  0  0  0  0  0  0  0  0  0  0  # atno 16475 bound_to 11004
  -19.8030   -0.3320   21.3155 LP  0  0  0  0  0  0  0  0  0  0  0  0  # atno 16476 bound_to 11004
  -14.4557    0.4823   17.9756 LP  0  0  0  0  0  0  0  0  0  0  0  0  # atno 16477 bound_to 10914
  -14.0553    1.8330   16.9680 LP  0  0  0  0  0  0  0  0  0  0  0  0  # atno 16478 bound_to 10914
  -18.9963   -1.1033   16.8505 LP  0  0  0  0  0  0  0  0  0  0  0  0  # atno 16479 bound_to 10951
  -20.0871   -0.3017   17.9311 LP  0  0  0  0  0  0  0  0  0  0  0  0  # atno 16480 bound_to 10951
  -24.1471    1.8154   17.2349 LP  0  0  0  0  0  0  0  0  0  0  0  0  # atno 16482 bound_to 10719
  -23.0720    1.4831   18.4183 LP  0  0  0  0  0  0  0  0  0  0  0  0  # atno 16483 bound_to 10719
  -25.5097    2.1632   17.6194 LP  0  0  0  0  0  0  0  0  0  0  0  0  # atno 16484 bound_to 11987
  -26.4649    0.8413   18.2028 LP  0  0  0  0  0  0  0  0  0  0  0  0  # atno 16485 bound_to 11987
  -27.5607    5.4636   15.9317 LP  0  0  0  0  0  0  0  0  0  0  0  0  # atno 16486 bound_to 12059
  -26.6776    6.1475   14.6079 LP  0  0  0  0  0  0  0  0  0  0  0  0  # atno 16487 bound_to 12059
  -24.2317   -0.4007   23.1702 LP  0  0  0  0  0  0  0  0  0  0  0  0  # atno 16490 bound_to 11046
  -25.1534   -0.7152   21.7379 LP  0  0  0  0  0  0  0  0  0  0  0  0  # atno 16491 bound_to 11046
  -28.5317    3.7421   16.6463 LP  0  0  0  0  0  0  0  0  0  0  0  0  # atno 16492 bound_to 12056
  -17.7627    0.5303   14.9278 LP  0  0  0  0  0  0  0  0  0  0  0  0  # atno 16493 bound_to 10911
  -12.8737    1.3644   14.5606 LP  0  0  0  0  0  0  0  0  0  0  0  0  # atno 16500 bound_to 6108
  -13.5042    0.4016   13.2662 LP  0  0  0  0  0  0  0  0  0  0  0  0  # atno 16501 bound_to 6108
  -12.1528    1.8481   11.4081 LP  0  0  0  0  0  0  0  0  0  0  0  0  # atno 16502 bound_to 6140
   -8.3601    2.2594   16.2935 LP  0  0  0  0  0  0  0  0  0  0  0  0  # atno 16503 bound_to 5921
   -8.7610    2.3614   14.6116 LP  0  0  0  0  0  0  0  0  0  0  0  0  # atno 16504 bound_to 5921
  -10.3341    1.6853   11.7400 LP  0  0  0  0  0  0  0  0  0  0  0  0  # atno 16505 bound_to 6105
  -10.4806    4.1899   10.2783 LP  0  0  0  0  0  0  0  0  0  0  0  0  # atno 16506 bound_to 6059
   -9.5949    4.8454   11.6147 LP  0  0  0  0  0  0  0  0  0  0  0  0  # atno 16507 bound_to 6059
  -10.4662    0.5402   14.2391 LP  0  0  0  0  0  0  0  0  0  0  0  0  # atno 16510 bound_to 5858
  -10.0495    0.2324   12.5863 LP  0  0  0  0  0  0  0  0  0  0  0  0  # atno 16511 bound_to 5858
   -9.7395   -1.3368   14.2157 LP  0  0  0  0  0  0  0  0  0  0  0  0  # atno 16516 bound_to 5918
   -7.5804   -0.3110   13.9268 LP  0  0  0  0  0  0  0  0  0  0  0  0  # atno 16517 bound_to 5990
   -7.4706    3.8542   11.9486 LP  0  0  0  0  0  0  0  0  0  0  0  0  # atno 16518 bound_to 5993
   -5.9538    3.7219   12.7742 LP  0  0  0  0  0  0  0  0  0  0  0  0  # atno 16519 bound_to 5993
   -8.1497    0.5369   12.1058 LP  0  0  0  0  0  0  0  0  0  0  0  0  # atno 16520 bound_to 6056
  -21.0416    0.9473   28.1708 LP  0  0  0  0  0  0  0  0  0  0  0  0  # atno 16523 bound_to 11156
  -21.2443    0.7848   26.4584 LP  0  0  0  0  0  0  0  0  0  0  0  0  # atno 16524 bound_to 11156
  -19.0382   -1.5675   28.3686 LP  0  0  0  0  0  0  0  0  0  0  0  0  # atno 16525 bound_to 11201
  -16.0610   -1.0446   30.2559 LP  0  0  0  0  0  0  0  0  0  0  0  0  # atno 16528 bound_to 11204
  -16.8229   -0.8697   28.7103 LP  0  0  0  0  0  0  0  0  0  0  0  0  # atno 16529 bound_to 11204
  -17.5306    0.3959   30.3923 LP  0  0  0  0  0  0  0  0  0  0  0  0  # atno 16530 bound_to 11237
  -21.3252   -2.1939   24.9738 LP  0  0  0  0  0  0  0  0  0  0  0  0  # atno 16533 bound_to 11153
  -21.0522   -4.3232   25.0705 LP  0  0  0  0  0  0  0  0  0  0  0  0  # atno 16540 bound_to 11096
  -19.8748   -3.4060   24.1916 LP  0  0  0  0  0  0  0  0  0  0  0  0  # atno 16541 bound_to 11096
  -16.2897   -1.8481   13.6132 LP  0  0  0  0  0  0  0  0  0  0  0  0  # atno 16544 bound_to 10768
  -16.7133   -1.5228   15.2608 LP  0  0  0  0  0  0  0  0  0  0  0  0  # atno 16545 bound_to 10768
  -15.0477   -2.4789   32.4351 LP  0  0  0  0  0  0  0  0  0  0  0  0  # atno 16552 bound_to 11240
  -14.2007   -0.9875   32.6762 LP  0  0  0  0  0  0  0  0  0  0  0  0  # atno 16553 bound_to 11240
  -17.1026   -0.6350   33.6167 LP  0  0  0  0  0  0  0  0  0  0  0  0  # atno 16554 bound_to 11275
  -19.3296   -2.5311   32.3116 LP  0  0  0  0  0  0  0  0  0  0  0  0  # atno 16558 bound_to 11278
  -19.8062   -4.1944   32.2330 LP  0  0  0  0  0  0  0  0  0  0  0  0  # atno 16559 bound_to 11278
  -18.0857   -7.8797   26.3741 LP  0  0  0  0  0  0  0  0  0  0  0  0  # atno 16561 bound_to 9430
  -20.6494   -5.9875   31.1030 LP  0  0  0  0  0  0  0  0  0  0  0  0  # atno 16562 bound_to 11325
  -21.7494   -6.5603   32.3121 LP  0  0  0  0  0  0  0  0  0  0  0  0  # atno 16563 bound_to 11325
  -22.7994   -3.8060   31.7311 LP  0  0  0  0  0  0  0  0  0  0  0  0  # atno 16564 bound_to 11474
  -19.9097   -6.4670   33.4790 LP  0  0  0  0  0  0  0  0  0  0  0  0  # atno 16565 bound_to 11366
  -21.0379   -8.0892   27.3549 LP  0  0  0  0  0  0  0  0  0  0  0  0  # atno 16566 bound_to 9387
  -21.2375   -9.4033   26.2444 LP  0  0  0  0  0  0  0  0  0  0  0  0  # atno 16567 bound_to 9387
  -19.3631  -11.2652   31.0860 LP  0  0  0  0  0  0  0  0  0  0  0  0  # atno 16568 bound_to 11550
  -19.1594  -10.8938   32.6631 LP  0  0  0  0  0  0  0  0  0  0  0  0  # atno 16569 bound_to 11550
  -19.4573  -11.3295   25.7726 LP  0  0  0  0  0  0  0  0  0  0  0  0  # atno 16570 bound_to 9345
  -18.4116  -11.4896   24.4012 LP  0  0  0  0  0  0  0  0  0  0  0  0  # atno 16571 bound_to 9345
  -14.7803  -13.5079   23.6679 LP  0  0  0  0  0  0  0  0  0  0  0  0  # atno 16572 bound_to 9348
  -14.7487  -13.7673   25.2798 LP  0  0  0  0  0  0  0  0  0  0  0  0  # atno 16573 bound_to 9348
  -18.8013   -9.5962   23.7437 LP  0  0  0  0  0  0  0  0  0  0  0  0  # atno 16574 bound_to 9481
   -8.1399   -3.6493   16.6203 LP  0  0  0  0  0  0  0  0  0  0  0  0  # atno 16579 bound_to 5720
   -8.7996   -3.7825   15.0244 LP  0  0  0  0  0  0  0  0  0  0  0  0  # atno 16580 bound_to 5720
   -1.3174   -9.3888   20.9611 LP  0  0  0  0  0  0  0  0  0  0  0  0  # atno 16587 bound_to 15466
   -2.1268   -9.7678   22.3278 LP  0  0  0  0  0  0  0  0  0  0  0  0  # atno 16588 bound_to 15466
  -10.8181  -10.3971   16.7695 LP  0  0  0  0  0  0  0  0  0  0  0  0  # atno 16591 bound_to 7831
   -2.6298  -13.0229   26.7062 LP  0  0  0  0  0  0  0  0  0  0  0  0  # atno 16592 bound_to 1821
   -4.0468  -13.9334   26.3024 LP  0  0  0  0  0  0  0  0  0  0  0  0  # atno 16593 bound_to 1821
   -7.3329  -12.4472   18.5668 LP  0  0  0  0  0  0  0  0  0  0  0  0  # atno 16594 bound_to 7834
   -7.8061  -13.6598   17.4242 LP  0  0  0  0  0  0  0  0  0  0  0  0  # atno 16595 bound_to 7834
   -8.1013   -7.6007   14.1638 LP  0  0  0  0  0  0  0  0  0  0  0  0  # atno 16596 bound_to 5717
   -7.5230   -5.5048   15.1124 LP  0  0  0  0  0  0  0  0  0  0  0  0  # atno 16597 bound_to 5767
   -1.0567  -13.6113   19.3256 LP  0  0  0  0  0  0  0  0  0  0  0  0  # atno 16600 bound_to 1745
   -0.1390  -12.1426   19.3019 LP  0  0  0  0  0  0  0  0  0  0  0  0  # atno 16601 bound_to 1745
   -0.7588  -14.7379   23.7006 LP  0  0  0  0  0  0  0  0  0  0  0  0  # atno 16602 bound_to 1818
   -4.8825   -6.1978   13.6867 LP  0  0  0  0  0  0  0  0  0  0  0  0  # atno 16603 bound_to 5772
   -3.7000   -6.9595   14.5163 LP  0  0  0  0  0  0  0  0  0  0  0  0  # atno 16604 bound_to 5772
    0.4432   -8.0567   17.7976 LP  0  0  0  0  0  0  0  0  0  0  0  0  # atno 16605 bound_to 15403
    1.5059  -13.6026   21.5045 LP  0  0  0  0  0  0  0  0  0  0  0  0  # atno 16606 bound_to 1791
   -4.2680   -9.3152   13.1472 LP  0  0  0  0  0  0  0  0  0  0  0  0  # atno 16607 bound_to 5617
   -6.2630   -7.5583   12.4127 LP  0  0  0  0  0  0  0  0  0  0  0  0  # atno 16608 bound_to 5620
   -5.8086   -7.6077   14.0833 LP  0  0  0  0  0  0  0  0  0  0  0  0  # atno 16609 bound_to 5620
  -10.1525   -9.8990   14.6633 LP  0  0  0  0  0  0  0  0  0  0  0  0  # atno 16610 bound_to 7788
   -9.1802  -10.8062   15.7730 LP  0  0  0  0  0  0  0  0  0  0  0  0  # atno 16611 bound_to 7788
  -10.8447  -12.4709   16.9594 LP  0  0  0  0  0  0  0  0  0  0  0  0  # atno 16612 bound_to 7874
    0.2008  -16.4418   24.2737 LP  0  0  0  0  0  0  0  0  0  0  0  0  # atno 16613 bound_to 1794
    0.7569  -16.1221   22.6648 LP  0  0  0  0  0  0  0  0  0  0  0  0  # atno 16614 bound_to 1794
    0.3492  -14.1162   28.7374 LP  0  0  0  0  0  0  0  0  0  0  0  0  # atno 16615 bound_to 1824
   -0.8308  -15.2256   28.5290 LP  0  0  0  0  0  0  0  0  0  0  0  0  # atno 16616 bound_to 1824
   -2.2294  -16.8718   26.9404 LP  0  0  0  0  0  0  0  0  0  0  0  0  # atno 16617 bound_to 1854
  -16.1607  -14.5029   28.2404 LP  0  0  0  0  0  0  0  0  0  0  0  0  # atno 16622 bound_to 9318
  -14.9693  -14.8672   27.0372 LP  0  0  0  0  0  0  0  0  0  0  0  0  # atno 16623 bound_to 9318
  -16.6727  -14.2010   25.0250 LP  0  0  0  0  0  0  0  0  0  0  0  0  # atno 16624 bound_to 9342
  -21.9102   -8.3466   22.8691 LP  0  0  0  0  0  0  0  0  0  0  0  0  # atno 16627 bound_to 9433
  -21.0378   -6.8537   22.7683 LP  0  0  0  0  0  0  0  0  0  0  0  0  # atno 16628 bound_to 9433
  -16.6769   -6.9250   18.6143 LP  0  0  0  0  0  0  0  0  0  0  0  0  # atno 16629 bound_to 9492
  -17.7596   -7.4063   17.4906 LP  0  0  0  0  0  0  0  0  0  0  0  0  # atno 16630 bound_to 9492
  -17.3339  -13.3206   20.1699 LP  0  0  0  0  0  0  0  0  0  0  0  0  # atno 16631 bound_to 7667
  -17.2952  -11.8758   19.2154 LP  0  0  0  0  0  0  0  0  0  0  0  0  # atno 16632 bound_to 7667
  -15.7524  -13.3078   18.7468 LP  0  0  0  0  0  0  0  0  0  0  0  0  # atno 16634 bound_to 7723
  -12.9346  -13.0502   17.1401 LP  0  0  0  0  0  0  0  0  0  0  0  0  # atno 16635 bound_to 7726
  -12.6991  -12.0663   15.7342 LP  0  0  0  0  0  0  0  0  0  0  0  0  # atno 16636 bound_to 7726
  -20.6798   -5.6686   17.2674 LP  0  0  0  0  0  0  0  0  0  0  0  0  # atno 16637 bound_to 10539
  -20.1185   -6.0624   15.6769 LP  0  0  0  0  0  0  0  0  0  0  0  0  # atno 16638 bound_to 10539
   -5.3526  -15.3549   33.0299 LP  0  0  0  0  0  0  0  0  0  0  0  0  # atno 16639 bound_to 1884
   -6.8061  -15.9709   32.6121 LP  0  0  0  0  0  0  0  0  0  0  0  0  # atno 16640 bound_to 1884
  -16.7376  -17.1712   27.4913 LP  0  0  0  0  0  0  0  0  0  0  0  0  # atno 16641 bound_to 9315
   -3.7751  -16.5366   29.7614 LP  0  0  0  0  0  0  0  0  0  0  0  0  # atno 16642 bound_to 1879
   -1.9790  -16.6133   30.6146 LP  0  0  0  0  0  0  0  0  0  0  0  0  # atno 16643 bound_to 1857
   -1.6474  -17.0912   28.9831 LP  0  0  0  0  0  0  0  0  0  0  0  0  # atno 16644 bound_to 1857
  -18.7166  -17.3468   23.2657 LP  0  0  0  0  0  0  0  0  0  0  0  0  # atno 16645 bound_to 7565
  -17.0279  -17.7262   23.1994 LP  0  0  0  0  0  0  0  0  0  0  0  0  # atno 16646 bound_to 7565
  -19.7641  -17.4801   25.9076 LP  0  0  0  0  0  0  0  0  0  0  0  0  # atno 16647 bound_to 9289
  -20.5789  -17.4506   27.4357 LP  0  0  0  0  0  0  0  0  0  0  0  0  # atno 16648 bound_to 9289
  -18.0202  -19.5684   31.0358 LP  0  0  0  0  0  0  0  0  0  0  0  0  # atno 16649 bound_to 9236
  -18.8258  -18.5469   32.1792 LP  0  0  0  0  0  0  0  0  0  0  0  0  # atno 16650 bound_to 9236
  -20.1650  -18.1579   29.8355 LP  0  0  0  0  0  0  0  0  0  0  0  0  # atno 16653 bound_to 9286
  -22.2125  -20.9975   31.6677 LP  0  0  0  0  0  0  0  0  0  0  0  0  # atno 16654 bound_to 9233
  -10.8204  -23.2416   33.3247 LP  0  0  0  0  0  0  0  0  0  0  0  0  # atno 16655 bound_to 3365
  -12.0540  -23.3211   34.5379 LP  0  0  0  0  0  0  0  0  0  0  0  0  # atno 16656 bound_to 3365
   -7.9389  -24.1706   37.1544 LP  0  0  0  0  0  0  0  0  0  0  0  0  # atno 16657 bound_to 3362
   -4.9976  -19.5262   31.2898 LP  0  0  0  0  0  0  0  0  0  0  0  0  # atno 16658 bound_to 1922

> <Gold.Score>
     Fitness  S(hb_ext) S(vdw_ext)  S(hb_int)    S(int)      intcor
     32.84       0.48      24.12       0.00      -0.80      -0.80

> <Gold.Goldscore.Fitness>
32.8437

> <Gold.Goldscore.Internal.Vdw>
-1.1348

> <Gold.Goldscore.Internal.Torsion>
-0.4680

> <Gold.Goldscore.External.Vdw>
24.1174

> <Gold.Goldscore.Internal.HBond>
0.0000

> <Gold.Goldscore.External.HBond>
0.4844

> <Gold.Goldscore.Internal.Correction>
-0.8007

> <Gold.Goldscore.Hbonds>
donor molecule, donor type, donor heavy atom, donor atom, acceptor molecule, acceptor atom, score
      P1  H  6140  6164       L1     9  0.03
      L1  H     8    22       P1 10886  0.22

> <Gold.Goldscore.Internal.Vdw.Weighted>
-1.1348

> <Gold.Goldscore.Internal.Torsion.Weighted>
-0.4680

> <Gold.Goldscore.External.Vdw.Weighted>
33.1614

> <Gold.Goldscore.Internal.HBond.Weighted>
0.0000

> <Gold.Goldscore.External.HBond.Weighted>
0.4844

> <Gold.Goldscore.Internal.Correction.Weighted>
-0.8007

> <Gold.Rescore>
     Score     S(PLP)   S(hbond)     S(cho)   S(metal)  DE(clash)   DE(tors)     intcor
     26.07     -27.81       0.00       0.00       0.00       0.00       0.87       ----

> <Gold.PLP.Fitness>
26.0685

> <Gold.PLP.PLP>
-27.8097

> <Gold.PLP.part.hbond>
0.0000

> <Gold.PLP.part.metal>
0.0000

> <Gold.PLP.part.buried>
0.2975

> <Gold.PLP.part.nonpolar>
-29.3372

> <Gold.PLP.part.repulsive>
0.2414

> <Gold.PLP.ligand.clash>
0.0000

> <Gold.PLP.ligand.torsion>
0.8706

> <Gold.PLP.Chemscore.Hbond>
0.0000

> <Gold.PLP.Chemscore.CHOScore>
0.0000

> <Gold.PLP.Chemscore.Metal>
0.0000

> <Gold.Chemscore.Hbonds>
donor molecule, donor type, donor heavy atom, donor atom, acceptor molecule, acceptor atom, score
      L1  H     8    22       P1 10886  1.00

> <Gold.PLP.Chemscore.Internal.Correction>
   9.000000E+99

#       Name:                CT1002167954
#       Creating user name   hitesit
#       Creation time:       Sun Apr 16 22:51:58 2023


#       File generated by GOLD software.
#

@<TRIPOS>MOLECULE
CT1002167954|ligand_prepared|mol2|1|dock5
    29    30     1
SMALL
NO_CHARGES


@<TRIPOS>ATOM
      1 C1          -4.6518 -16.0538  19.1388 C.3            1 RES1               0.0000
      2 C2          -5.3773 -17.3477  19.5609 C.ar           1 RES1               0.0000
      3 C3          -5.6924 -15.1901  18.4322 C.2            1 RES1               0.0000
      4 C4          -4.0979 -15.4383  20.4190 C.2            1 RES1               0.0000
      5 C5          -3.4688 -16.2882  18.1708 C.3            1 RES1               0.0000
      6 C6          -5.7127 -18.3126  18.6158 C.ar           1 RES1               0.0000
      7 C7          -5.7148 -17.5913  20.8896 C.ar           1 RES1               0.0000
      8 N8          -6.1727 -14.1040  19.1028 N.am           1 RES1               0.0000
      9 O9          -6.1143 -15.4799  17.3194 O.2            1 RES1               0.0000
     10 N10         -4.6098 -14.2341  20.8262 N.am           1 RES1               0.0000
     11 O11         -3.2347 -15.9931  21.0878 O.2            1 RES1               0.0000
     12 C12         -2.5413 -15.0910  18.0348 C.3            1 RES1               0.0000
     13 C13         -6.3594 -19.4802  18.9859 C.ar           1 RES1               0.0000
     14 C14         -6.3618 -18.7595  21.2575 C.ar           1 RES1               0.0000
     15 C15         -5.6437 -13.5539  20.2426 C.2            1 RES1               0.0000
     16 C16         -6.6840 -19.7046  20.3068 C.ar           1 RES1               0.0000
     17 O17         -6.0846 -12.5030  20.6990 O.2            1 RES1               0.0000
     18 H18         -2.8866 -17.1473  18.5262 H              1 RES1               0.0000
     19 H19         -3.8676 -16.5401  17.1803 H              1 RES1               0.0000
     20 H20         -5.4676 -18.1524  17.5712 H              1 RES1               0.0000
     21 H21         -5.4722 -16.8614  21.6544 H              1 RES1               0.0000
     22 H22         -7.0019 -13.6598  18.7215 H              1 RES1               0.0000
     23 H23         -4.1801 -13.8050  21.6396 H              1 RES1               0.0000
     24 H24         -1.7290 -15.3087  17.3445 H              1 RES1               0.0000
     25 H25         -3.0821 -14.2247  17.6593 H              1 RES1               0.0000
     26 H26         -2.1069 -14.8283  18.9972 H              1 RES1               0.0000
     27 H27         -6.6120 -20.2202  18.2337 H              1 RES1               0.0000
     28 H28         -6.6159 -18.9317  22.2982 H              1 RES1               0.0000
     29 H29         -7.1903 -20.6195  20.5965 H              1 RES1               0.0000
@<TRIPOS>BOND
    1    1    2 1     
    2    1    3 1     
    3    1    4 1     
    4    1    5 1     
    5    2    6 ar    
    6    2    7 ar    
    7    3    8 1     
    8    3    9 2     
    9    4   10 1     
   10    4   11 2     
   11    5   12 1     
   12    5   18 1     
   13    5   19 1     
   14    6   13 ar    
   15    6   20 1     
   16    7   14 ar    
   17    7   21 1     
   18    8   15 1     
   19    8   22 1     
   20   10   15 1     
   21   10   23 1     
   22   12   24 1     
   23   12   25 1     
   24   12   26 1     
   25   13   16 ar    
   26   13   27 1     
   27   14   16 ar    
   28   14   28 1     
   29   15   17 2     
   30   16   29 1     
@<TRIPOS>SUBSTRUCTURE
      1 RES1           1
@<TRIPOS>SET
DONOR_HYDROGENS      STATIC     ATOMS    <user>   **** ""
2 22 23
ATOM$RED        STATIC     ATOMS    COLORGROUP SYSTEM
2 22 23
@<TRIPOS>COMMENT
> <Gold.Version>
2022.3.0

> <Gold.Id.Protein>
unknown|3mvj_clean|pdb

> <Gold.Protein.RotatedTorsions>
[ 11826 11799 11798 11795 ] final  -85.83 input   60.01 | X-H torsion
[ 11911 11856 11855 11854 ] final  168.48 input   60.02 | X-H torsion
[ 10977 10959 10958 10956 ] final  162.97 input   60.00 | X-H torsion
[ 10969 10948 10949 10950 ] final   13.75 input   32.02 | X-H torsion
[ 10737 10719 10718 10716 ] final   26.58 input   60.01 | X-H torsion
[ 12076 12056 12057 12058 ] final    3.89 input   63.02 | X-H torsion
[ 10918 10911 10912 10913 ] final -152.11 input  -92.90 | X-H torsion
[ 6164 6140 6141 6142 ] final  -54.43 input   39.58 | X-H torsion
[ 6112 6105 6106 6107 ] final   -8.88 input  -69.34 | X-H torsion
[ 5955 5918 5919 5920 ] final  -35.37 input  125.26 | X-H torsion
[ 6027 5990 5991 5992 ] final   90.65 input  110.40 | X-H torsion
[ 6075 6056 6057 6058 ] final  118.19 input  107.04 | X-H torsion
[ 11686 11631 11630 11629 ] final  -52.50 input   60.02 | X-H torsion
[ 11211 11201 11202 11203 ] final -102.05 input   18.84 | X-H torsion
[ 11249 11237 11238 11239 ] final   26.92 input  111.29 | X-H torsion
[ 11173 11153 11154 11155 ] final -111.42 input   30.50 | X-H torsion
[ 11292 11275 11276 11277 ] final  -51.07 input   58.53 | X-H torsion
[ 9451 9430 9431 9432 ] final -169.51 input  110.06 | X-H torsion
[ 11493 11474 11475 11476 ] final   71.04 input  115.95 | X-H torsion
[ 11385 11366 11367 11368 ] final  -38.18 input  117.79 | X-H torsion
[ 11568 11550 11549 11547 ] final   79.75 input   59.97 | X-H torsion
[ 9369 9348 9346 9343 ] final   86.63 input   60.02 | X-H torsion
[ 9511 9481 9482 9483 ] final  -73.31 input   75.78 | X-H torsion
[ 15475 15466 15465 15463 ] final   89.31 input   60.00 | X-H torsion
[ 7755 7731 7730 7729 ] final  -12.88 input   60.02 | X-H torsion
[ 7846 7831 7832 7833 ] final -120.80 input  113.97 | X-H torsion
[ 5737 5717 5718 5719 ] final  146.41 input  137.93 | X-H torsion
[ 5778 5767 5768 5769 ] final -102.84 input  116.46 | X-H torsion
[ 1839 1818 1819 1820 ] final  -63.36 input   43.70 | X-H torsion
[ 5782 5772 5771 5768 ] final  127.55 input   59.97 | X-H torsion
[ 15411 15403 15404 15405 ] final  -39.89 input  102.24 | X-H torsion
[ 1801 1791 1792 1793 ] final  113.20 input  -10.55 | X-H torsion
[ 5632 5617 5618 5619 ] final  -91.34 input   93.34 | X-H torsion
[ 7884 7874 7875 7876 ] final -114.82 input   68.03 | X-H torsion
[ 1845 1824 1822 1819 ] final  -58.13 input   60.02 | X-H torsion
[ 1864 1854 1855 1856 ] final -170.40 input   57.50 | X-H torsion
[ 9363 9342 9343 9344 ] final  103.32 input   55.58 | X-H torsion
[ 9519 9492 9491 9489 ] final -134.11 input   60.02 | X-H torsion
[ 7745 7723 7724 7725 ] final   89.31 input   17.81 | X-H torsion
[ 1896 1884 1883 1880 ] final   64.28 input   60.01 | X-H torsion
[ 9325 9315 9316 9317 ] final  114.22 input  -36.21 | X-H torsion
[ 1892 1879 1880 1881 ] final  -36.94 input   98.21 | X-H torsion
[ 9302 9286 9287 9288 ] final  104.46 input   37.00 | X-H torsion
[ 9263 9233 9234 9235 ] final  145.86 input   95.32 | X-H torsion
[ 3370 3362 3363 3364 ] final  -65.35 input   97.92 | X-H torsion
[ 1947 1922 1923 1924 ] final -167.03 input  104.43 | X-H torsion
[ 12159 12148 12149 12150 ] final   25.81 input  116.04 | X-H torsion
[ 11673 11649 11648 11647 ] final  -83.67 input   59.99 | X-H torsion
[ 12008 11984 11985 11986 ] final   46.98 input   61.04 | X-H torsion
[ 11113 11093 11094 11095 ] final   82.93 input   39.50 | X-H torsion
[ 7924 7916 7917 7918 ] final  -40.31 input   66.66 | X-H torsion
[ 8650 8630 8631 8632 ] final -153.99 input   75.31 | X-H torsion
[ 9566 9536 9537 9538 ] final  105.09 input  103.50 | X-H torsion
[ 16472 10886 10885 10884 ] final  164.47 input    0.00 | X-H torsion
[ 16475 11004 11003 11002 ] final   11.24 input    0.00 | X-H torsion
[ 16477 10914 10913 10912 ] final -132.16 input    0.00 | X-H torsion
[ 16479 10951 10950 10949 ] final   87.25 input   -0.00 | X-H torsion
[ 16484 11987 11986 11985 ] final  122.40 input    0.00 | X-H torsion
[ 16486 12059 12058 12057 ] final -105.34 input   -0.00 | X-H torsion
[ 16490 11046 11045 11044 ] final  -58.99 input    0.00 | X-H torsion
[ 16500 6108 6107 6106 ] final  142.30 input    0.00 | X-H torsion
[ 16503 5921 5920 5919 ] final  -54.72 input   -0.00 | X-H torsion
[ 16506 6059 6058 6057 ] final   54.89 input    0.00 | X-H torsion
[ 16510 5858 5857 5856 ] final  -30.80 input    0.00 | X-H torsion
[ 16518 5993 5992 5991 ] final -156.03 input   -0.00 | X-H torsion
[ 16523 11156 11155 11154 ] final  133.63 input    0.00 | X-H torsion
[ 16528 11204 11203 11202 ] final -175.76 input    0.00 | X-H torsion
[ 16540 11096 11095 11094 ] final  -16.83 input   -0.00 | X-H torsion
[ 16544 10768 10767 10766 ] final    6.93 input   -0.00 | X-H torsion
[ 16552 11240 11239 11238 ] final -172.88 input    0.00 | X-H torsion
[ 16558 11278 11277 11276 ] final -126.45 input   -0.00 | X-H torsion
[ 16562 11325 11324 11323 ] final   51.96 input   -0.00 | X-H torsion
[ 16566 9387 9386 9385 ] final -139.33 input   -0.00 | X-H torsion
[ 16570 9345 9344 9343 ] final    4.31 input    0.00 | X-H torsion
[ 16579 5720 5719 5718 ] final  -15.64 input    0.00 | X-H torsion
[ 16592 1821 1820 1819 ] final   81.51 input    0.00 | X-H torsion
[ 16594 7834 7833 7832 ] final   -8.52 input    0.00 | X-H torsion
[ 16600 1745 1744 1743 ] final   98.45 input    0.00 | X-H torsion
[ 16608 5620 5619 5618 ] final   51.77 input   -0.00 | X-H torsion
[ 16610 7788 7787 7786 ] final -132.28 input   -0.00 | X-H torsion
[ 16613 1794 1793 1792 ] final   91.30 input   -0.00 | X-H torsion
[ 16622 9318 9317 9316 ] final   53.26 input   -0.00 | X-H torsion
[ 16627 9433 9432 9431 ] final  136.33 input    0.00 | X-H torsion
[ 16631 7667 7666 7665 ] final  -47.93 input   -0.00 | X-H torsion
[ 16635 7726 7725 7724 ] final -101.51 input    0.00 | X-H torsion
[ 16637 10539 10538 10537 ] final -104.25 input   -0.00 | X-H torsion
[ 16643 1857 1856 1855 ] final -171.81 input    0.00 | X-H torsion
[ 16645 7565 7564 7563 ] final  -50.81 input    0.00 | X-H torsion
[ 16647 9289 9288 9287 ] final  -50.91 input    0.00 | X-H torsion
[ 16649 9236 9235 9234 ] final   38.51 input    0.00 | X-H torsion
[ 16655 3365 3364 3363 ] final  -57.77 input    0.00 | X-H torsion

> <Gold.Protein.ActiveResidues>
 LEU49   GLY50   THR51   GLY52   SER53   PHE54   VAL57   LEU82   LYS83   GLN84  
 HIS87   GLU127  PHE129  SER130  LEU132  ARG133  ARG134  ILE135  GLY136  ARG137 
 ARG165  ASP166  LEU167  LYS168  PRO169  GLU170  ASN171  LEU172  LEU173  ASP184 
 GLY186  PHE187  TPO197  LEU198  CYS199  GLY200  THR201  PRO202  GLU203  TYR204 
 LEU205  ILE209  ILE210  VAL226  LEU227  TYR229  GLU230  ALA233  GLY234  TYR235 
 PRO236  PRO237  PHE238  PHE239  ALA240  ASP241  GLN242  PRO243  ILE244  GLN245 
 ILE246  TYR247  GLU248  LYS249  ILE250  VAL251  SER252  LYS254  ARG256  PHE257 
 PRO258  SER259  PHE327  ASP328  TYR330 

> <Gold.Protein.RotatedAtoms>
    0.5730  -14.6069   20.4404 H   0  0  0  0  0  0  0  0  0  0  0  0  # atno 1801 bound_to 1791
   -1.5648  -14.5375   23.7835 H   0  0  0  0  0  0  0  0  0  0  0  0  # atno 1839 bound_to 1818
   -0.9912  -13.6269   28.0641 H   0  0  0  0  0  0  0  0  0  0  0  0  # atno 1845 bound_to 1824
   -2.9386  -15.5927   26.2627 H   0  0  0  0  0  0  0  0  0  0  0  0  # atno 1864 bound_to 1854
   -3.9448  -17.4078   29.4693 H   0  0  0  0  0  0  0  0  0  0  0  0  # atno 1892 bound_to 1879
   -6.2282  -15.8941   31.5050 H   0  0  0  0  0  0  0  0  0  0  0  0  # atno 1896 bound_to 1884
   -5.1635  -19.5710   31.1532 H   0  0  0  0  0  0  0  0  0  0  0  0  # atno 1947 bound_to 1922
   -8.3355  -24.7059   36.9799 H   0  0  0  0  0  0  0  0  0  0  0  0  # atno 3370 bound_to 3362
   -4.3056  -10.6066   12.6784 H   0  0  0  0  0  0  0  0  0  0  0  0  # atno 5632 bound_to 5617
   -9.0164   -8.4910   15.0325 H   0  0  0  0  0  0  0  0  0  0  0  0  # atno 5737 bound_to 5717
   -7.3002   -5.4939   16.1711 H   0  0  0  0  0  0  0  0  0  0  0  0  # atno 5778 bound_to 5767
   -3.2165   -5.8240   13.6107 H   0  0  0  0  0  0  0  0  0  0  0  0  # atno 5782 bound_to 5772
   -9.3256   -1.2582   14.0034 H   0  0  0  0  0  0  0  0  0  0  0  0  # atno 5955 bound_to 5918
   -7.0545   -0.5814   14.0792 H   0  0  0  0  0  0  0  0  0  0  0  0  # atno 6027 bound_to 5990
   -7.7630    0.3965   11.7600 H   0  0  0  0  0  0  0  0  0  0  0  0  # atno 6075 bound_to 6056
  -10.3122    1.4362   12.0511 H   0  0  0  0  0  0  0  0  0  0  0  0  # atno 6112 bound_to 6105
  -12.1486    1.7951   11.4645 H   0  0  0  0  0  0  0  0  0  0  0  0  # atno 6164 bound_to 6140
  -14.6354  -13.5743   18.6665 H   0  0  0  0  0  0  0  0  0  0  0  0  # atno 7745 bound_to 7723
  -12.2739  -11.5532   24.1013 H   0  0  0  0  0  0  0  0  0  0  0  0  # atno 7755 bound_to 7731
  -12.5767  -13.1081   24.5889 H   0  0  0  0  0  0  0  0  0  0  0  0  # atno 7756 bound_to 7731
  -11.0401  -12.6590   24.1570 H   0  0  0  0  0  0  0  0  0  0  0  0  # atno 7757 bound_to 7731
  -10.4950   -9.4715   17.1375 H   0  0  0  0  0  0  0  0  0  0  0  0  # atno 7846 bound_to 7831
   -9.3896  -12.4846   17.8139 H   0  0  0  0  0  0  0  0  0  0  0  0  # atno 7884 bound_to 7874
   -9.3517  -13.8604   15.3658 H   0  0  0  0  0  0  0  0  0  0  0  0  # atno 7924 bound_to 7916
  -13.0165  -22.5706   24.0636 H   0  0  0  0  0  0  0  0  0  0  0  0  # atno 8650 bound_to 8630
  -21.9607  -20.9951   31.9809 H   0  0  0  0  0  0  0  0  0  0  0  0  # atno 9263 bound_to 9233
  -20.1137  -19.7363   29.0863 H   0  0  0  0  0  0  0  0  0  0  0  0  # atno 9302 bound_to 9286
  -18.4677  -16.9998   27.6486 H   0  0  0  0  0  0  0  0  0  0  0  0  # atno 9325 bound_to 9315
  -17.1105  -13.8992   24.7244 H   0  0  0  0  0  0  0  0  0  0  0  0  # atno 9363 bound_to 9342
  -15.0358  -13.7669   23.9748 H   0  0  0  0  0  0  0  0  0  0  0  0  # atno 9369 bound_to 9348
  -18.2851   -7.8315   26.5120 H   0  0  0  0  0  0  0  0  0  0  0  0  # atno 9451 bound_to 9430
  -20.3510   -8.8373   23.9871 H   0  0  0  0  0  0  0  0  0  0  0  0  # atno 9511 bound_to 9481
  -17.7661   -7.3618   17.5328 H   0  0  0  0  0  0  0  0  0  0  0  0  # atno 9519 bound_to 9492
  -21.2372  -10.6486   25.0829 H   0  0  0  0  0  0  0  0  0  0  0  0  # atno 9566 bound_to 9536
  -23.0849    1.7383   17.8785 H   0  0  0  0  0  0  0  0  0  0  0  0  # atno 10737 bound_to 10719
  -17.0191    0.4206   13.4474 H   0  0  0  0  0  0  0  0  0  0  0  0  # atno 10918 bound_to 10911
  -17.6377    0.3864   16.4043 H   0  0  0  0  0  0  0  0  0  0  0  0  # atno 10969 bound_to 10948
  -21.4043    5.6838   17.1287 H   0  0  0  0  0  0  0  0  0  0  0  0  # atno 10977 bound_to 10959
  -22.6246   -3.3078   22.2810 H   0  0  0  0  0  0  0  0  0  0  0  0  # atno 11113 bound_to 11093
  -21.5562   -2.2399   25.4867 H   0  0  0  0  0  0  0  0  0  0  0  0  # atno 11173 bound_to 11153
  -18.9120   -0.1527   27.3826 H   0  0  0  0  0  0  0  0  0  0  0  0  # atno 11211 bound_to 11201
  -18.2636    0.0629   31.5962 H   0  0  0  0  0  0  0  0  0  0  0  0  # atno 11249 bound_to 11237
  -17.0692   -1.4036   32.0832 H   0  0  0  0  0  0  0  0  0  0  0  0  # atno 11292 bound_to 11275
  -19.9746   -5.6652   33.2741 H   0  0  0  0  0  0  0  0  0  0  0  0  # atno 11385 bound_to 11366
  -21.7743   -4.2578   31.7531 H   0  0  0  0  0  0  0  0  0  0  0  0  # atno 11493 bound_to 11474
  -18.6323   -9.8396   31.7045 H   0  0  0  0  0  0  0  0  0  0  0  0  # atno 11568 bound_to 11550
  -25.5491    2.3539   27.9520 H   0  0  0  0  0  0  0  0  0  0  0  0  # atno 11673 bound_to 11649
  -24.5179    2.2293   29.2445 H   0  0  0  0  0  0  0  0  0  0  0  0  # atno 11674 bound_to 11649
  -24.0549    3.0704   27.8932 H   0  0  0  0  0  0  0  0  0  0  0  0  # atno 11675 bound_to 11649
   -8.1491    8.4190   25.4034 H   0  0  0  0  0  0  0  0  0  0  0  0  # atno 11686 bound_to 11631
   -8.2754    9.3290   26.7825 H   0  0  0  0  0  0  0  0  0  0  0  0  # atno 11687 bound_to 11631
   -9.4159    8.1754   26.4447 H   0  0  0  0  0  0  0  0  0  0  0  0  # atno 11688 bound_to 11631
  -12.3449   15.6771   22.3498 H   0  0  0  0  0  0  0  0  0  0  0  0  # atno 11826 bound_to 11799
  -18.2191   16.3329   24.5344 H   0  0  0  0  0  0  0  0  0  0  0  0  # atno 11911 bound_to 11856
  -16.8390   15.5956   23.9868 H   0  0  0  0  0  0  0  0  0  0  0  0  # atno 11912 bound_to 11856
  -17.6819   14.9396   25.2547 H   0  0  0  0  0  0  0  0  0  0  0  0  # atno 11913 bound_to 11856
  -27.7008    0.8389   19.8574 H   0  0  0  0  0  0  0  0  0  0  0  0  # atno 12008 bound_to 11984
  -27.8594    4.0651   17.0976 H   0  0  0  0  0  0  0  0  0  0  0  0  # atno 12076 bound_to 12056
  -24.2451    6.9919   12.4349 H   0  0  0  0  0  0  0  0  0  0  0  0  # atno 12159 bound_to 12148
    2.0996   -8.2631   17.2794 H   0  0  0  0  0  0  0  0  0  0  0  0  # atno 15411 bound_to 15403
   -1.9485  -10.9391   21.5805 H   0  0  0  0  0  0  0  0  0  0  0  0  # atno 15475 bound_to 15466
  -13.4279   15.5958   23.5615 LP  0  0  0  0  0  0  0  0  0  0  0  0  # atno 16466 bound_to 11799
  -13.1260   17.0225   22.8267 LP  0  0  0  0  0  0  0  0  0  0  0  0  # atno 16467 bound_to 11799
  -22.3686    4.9685   18.2273 LP  0  0  0  0  0  0  0  0  0  0  0  0  # atno 16468 bound_to 10959
  -22.2273    4.3384   16.7274 LP  0  0  0  0  0  0  0  0  0  0  0  0  # atno 16469 bound_to 10959
  -16.6682    3.2067   14.9240 LP  0  0  0  0  0  0  0  0  0  0  0  0  # atno 16472 bound_to 10886
  -18.0372    3.7304   14.0012 LP  0  0  0  0  0  0  0  0  0  0  0  0  # atno 16473 bound_to 10886
  -16.0616    1.0694   16.7539 LP  0  0  0  0  0  0  0  0  0  0  0  0  # atno 16474 bound_to 10948
  -19.8108   -0.1414   20.9599 LP  0  0  0  0  0  0  0  0  0  0  0  0  # atno 16475 bound_to 11004
  -21.4856   -0.2857   21.3775 LP  0  0  0  0  0  0  0  0  0  0  0  0  # atno 16476 bound_to 11004
  -14.4202    0.4432   17.9327 LP  0  0  0  0  0  0  0  0  0  0  0  0  # atno 16477 bound_to 10914
  -14.0907    1.8722   17.0109 LP  0  0  0  0  0  0  0  0  0  0  0  0  # atno 16478 bound_to 10914
  -19.0791   -1.2790   16.9395 LP  0  0  0  0  0  0  0  0  0  0  0  0  # atno 16479 bound_to 10951
  -20.0043   -0.1260   17.8420 LP  0  0  0  0  0  0  0  0  0  0  0  0  # atno 16480 bound_to 10951
  -24.1242    1.0142   18.9000 LP  0  0  0  0  0  0  0  0  0  0  0  0  # atno 16482 bound_to 10719
  -24.6520    1.5905   17.4661 LP  0  0  0  0  0  0  0  0  0  0  0  0  # atno 16483 bound_to 10719
  -26.2435    1.0169   17.2412 LP  0  0  0  0  0  0  0  0  0  0  0  0  # atno 16484 bound_to 11987
  -25.7311    1.9876   18.5811 LP  0  0  0  0  0  0  0  0  0  0  0  0  # atno 16485 bound_to 11987
  -27.2121    5.8414   14.4095 LP  0  0  0  0  0  0  0  0  0  0  0  0  # atno 16486 bound_to 12059
  -27.0262    5.7697   16.1301 LP  0  0  0  0  0  0  0  0  0  0  0  0  # atno 16487 bound_to 12059
  -24.2852    0.0858   22.0422 LP  0  0  0  0  0  0  0  0  0  0  0  0  # atno 16490 bound_to 11046
  -25.0999   -1.2017   22.8660 LP  0  0  0  0  0  0  0  0  0  0  0  0  # atno 16491 bound_to 11046
  -28.1557    2.3448   17.0351 LP  0  0  0  0  0  0  0  0  0  0  0  0  # atno 16492 bound_to 12056
  -17.8003    1.0722   14.8724 LP  0  0  0  0  0  0  0  0  0  0  0  0  # atno 16493 bound_to 10911
  -13.9977    1.0477   13.6510 LP  0  0  0  0  0  0  0  0  0  0  0  0  # atno 16500 bound_to 6108
  -12.3802    0.7183   14.1758 LP  0  0  0  0  0  0  0  0  0  0  0  0  # atno 16501 bound_to 6108
  -13.2531    3.0588   11.9528 LP  0  0  0  0  0  0  0  0  0  0  0  0  # atno 16502 bound_to 6140
   -9.3579    2.0914   15.1950 LP  0  0  0  0  0  0  0  0  0  0  0  0  # atno 16503 bound_to 5921
   -7.7632    2.5294   15.7101 LP  0  0  0  0  0  0  0  0  0  0  0  0  # atno 16504 bound_to 5921
   -9.3808    2.8612   12.4592 LP  0  0  0  0  0  0  0  0  0  0  0  0  # atno 16505 bound_to 6105
  -10.1586    4.2264   10.1399 LP  0  0  0  0  0  0  0  0  0  0  0  0  # atno 16506 bound_to 6059
   -9.9170    4.8088   11.7531 LP  0  0  0  0  0  0  0  0  0  0  0  0  # atno 16507 bound_to 6059
  -10.1771    0.1896   12.5732 LP  0  0  0  0  0  0  0  0  0  0  0  0  # atno 16510 bound_to 5858
  -10.3386    0.5830   14.2522 LP  0  0  0  0  0  0  0  0  0  0  0  0  # atno 16511 bound_to 5858
   -9.0677   -2.4753   15.2287 LP  0  0  0  0  0  0  0  0  0  0  0  0  # atno 16516 bound_to 5918
   -7.5779    0.6385   15.2248 LP  0  0  0  0  0  0  0  0  0  0  0  0  # atno 16517 bound_to 5990
   -7.4835    3.8595   11.9741 LP  0  0  0  0  0  0  0  0  0  0  0  0  # atno 16518 bound_to 5993
   -5.9409    3.7167   12.7488 LP  0  0  0  0  0  0  0  0  0  0  0  0  # atno 16519 bound_to 5993
   -7.3093    1.9097   12.4919 LP  0  0  0  0  0  0  0  0  0  0  0  0  # atno 16520 bound_to 6056
  -21.3596    0.6280   28.1186 LP  0  0  0  0  0  0  0  0  0  0  0  0  # atno 16523 bound_to 11156
  -20.9263    1.1041   26.5106 LP  0  0  0  0  0  0  0  0  0  0  0  0  # atno 16524 bound_to 11156
  -19.3211   -1.5418   28.3710 LP  0  0  0  0  0  0  0  0  0  0  0  0  # atno 16525 bound_to 11201
  -15.9591   -0.8762   30.1975 LP  0  0  0  0  0  0  0  0  0  0  0  0  # atno 16528 bound_to 11204
  -16.9248   -1.0381   28.7688 LP  0  0  0  0  0  0  0  0  0  0  0  0  # atno 16529 bound_to 11204
  -17.5736    1.3351   30.6163 LP  0  0  0  0  0  0  0  0  0  0  0  0  # atno 16530 bound_to 11237
  -21.4457   -0.5682   24.9790 LP  0  0  0  0  0  0  0  0  0  0  0  0  # atno 16533 bound_to 11153
  -21.1649   -4.3220   24.4101 LP  0  0  0  0  0  0  0  0  0  0  0  0  # atno 16540 bound_to 11096
  -19.7620   -3.4072   24.8519 LP  0  0  0  0  0  0  0  0  0  0  0  0  # atno 16541 bound_to 11096
  -16.6921   -1.5390   15.2690 LP  0  0  0  0  0  0  0  0  0  0  0  0  # atno 16544 bound_to 10768
  -16.3108   -1.8318   13.6050 LP  0  0  0  0  0  0  0  0  0  0  0  0  # atno 16545 bound_to 10768
  -15.0165   -2.4560   32.8270 LP  0  0  0  0  0  0  0  0  0  0  0  0  # atno 16552 bound_to 11240
  -14.2318   -1.0104   32.2843 LP  0  0  0  0  0  0  0  0  0  0  0  0  # atno 16553 bound_to 11240
  -17.4314   -0.6443   33.6151 LP  0  0  0  0  0  0  0  0  0  0  0  0  # atno 16554 bound_to 11275
  -19.9888   -3.9677   32.7270 LP  0  0  0  0  0  0  0  0  0  0  0  0  # atno 16558 bound_to 11278
  -19.1470   -2.7577   31.8176 LP  0  0  0  0  0  0  0  0  0  0  0  0  # atno 16559 bound_to 11278
  -18.7130   -9.2782   25.6261 LP  0  0  0  0  0  0  0  0  0  0  0  0  # atno 16561 bound_to 9430
  -20.8115   -6.9955   31.4267 LP  0  0  0  0  0  0  0  0  0  0  0  0  # atno 16562 bound_to 11325
  -21.5873   -5.5523   31.9884 LP  0  0  0  0  0  0  0  0  0  0  0  0  # atno 16563 bound_to 11325
  -22.3198   -2.6619   31.2779 LP  0  0  0  0  0  0  0  0  0  0  0  0  # atno 16564 bound_to 11474
  -19.5223   -6.0653   34.9054 LP  0  0  0  0  0  0  0  0  0  0  0  0  # atno 16565 bound_to 11366
  -21.2094   -8.8010   25.9384 LP  0  0  0  0  0  0  0  0  0  0  0  0  # atno 16566 bound_to 9387
  -21.0659   -8.6915   27.6610 LP  0  0  0  0  0  0  0  0  0  0  0  0  # atno 16567 bound_to 9387
  -19.2938  -11.1272   30.9610 LP  0  0  0  0  0  0  0  0  0  0  0  0  # atno 16568 bound_to 11550
  -19.2442  -11.0588   32.5918 LP  0  0  0  0  0  0  0  0  0  0  0  0  # atno 16569 bound_to 11550
  -18.5994  -12.1070   24.6980 LP  0  0  0  0  0  0  0  0  0  0  0  0  # atno 16570 bound_to 9345
  -19.2695  -10.7120   25.4758 LP  0  0  0  0  0  0  0  0  0  0  0  0  # atno 16571 bound_to 9345
  -14.3873  -13.5014   25.4434 LP  0  0  0  0  0  0  0  0  0  0  0  0  # atno 16572 bound_to 9348
  -13.7657  -12.7613   24.1271 LP  0  0  0  0  0  0  0  0  0  0  0  0  # atno 16573 bound_to 9348
  -18.8330   -9.6966   23.8538 LP  0  0  0  0  0  0  0  0  0  0  0  0  # atno 16574 bound_to 9481
   -9.2807   -4.0098   15.7445 LP  0  0  0  0  0  0  0  0  0  0  0  0  # atno 16579 bound_to 5720
   -7.6588   -3.4220   15.9002 LP  0  0  0  0  0  0  0  0  0  0  0  0  # atno 16580 bound_to 5720
   -1.2695   -9.7116   20.7561 LP  0  0  0  0  0  0  0  0  0  0  0  0  # atno 16587 bound_to 15466
   -1.9902   -9.4329   22.1947 LP  0  0  0  0  0  0  0  0  0  0  0  0  # atno 16588 bound_to 15466
  -11.4692  -10.6886   17.9444 LP  0  0  0  0  0  0  0  0  0  0  0  0  # atno 16591 bound_to 7831
   -3.6395  -13.6878   25.7199 LP  0  0  0  0  0  0  0  0  0  0  0  0  # atno 16592 bound_to 1821
   -3.0371  -13.2686   27.2887 LP  0  0  0  0  0  0  0  0  0  0  0  0  # atno 16593 bound_to 1821
   -7.2232  -12.2815   18.1802 LP  0  0  0  0  0  0  0  0  0  0  0  0  # atno 16594 bound_to 7834
   -7.9158  -13.8255   17.8108 LP  0  0  0  0  0  0  0  0  0  0  0  0  # atno 16595 bound_to 7834
   -8.7499   -7.2196   13.8517 LP  0  0  0  0  0  0  0  0  0  0  0  0  # atno 16596 bound_to 5717
   -6.5848   -6.4569   14.8967 LP  0  0  0  0  0  0  0  0  0  0  0  0  # atno 16597 bound_to 5767
   -0.9792  -13.6395   19.1617 LP  0  0  0  0  0  0  0  0  0  0  0  0  # atno 16600 bound_to 1745
   -0.2165  -12.1144   19.4658 LP  0  0  0  0  0  0  0  0  0  0  0  0  # atno 16601 bound_to 1745
   -0.3313  -13.5026   24.4672 LP  0  0  0  0  0  0  0  0  0  0  0  0  # atno 16602 bound_to 1818
   -4.8255   -6.0653   13.5807 LP  0  0  0  0  0  0  0  0  0  0  0  0  # atno 16603 bound_to 5772
   -3.8745   -6.9987   14.5246 LP  0  0  0  0  0  0  0  0  0  0  0  0  # atno 16604 bound_to 5772
    0.4448   -8.0797   17.8121 LP  0  0  0  0  0  0  0  0  0  0  0  0  # atno 16605 bound_to 15403
    1.5677  -13.7862   21.6245 LP  0  0  0  0  0  0  0  0  0  0  0  0  # atno 16606 bound_to 1791
   -3.9576   -9.6565   14.1082 LP  0  0  0  0  0  0  0  0  0  0  0  0  # atno 16607 bound_to 5617
   -5.3693   -7.9289   12.8166 LP  0  0  0  0  0  0  0  0  0  0  0  0  # atno 16608 bound_to 5620
   -6.7023   -7.2371   13.6795 LP  0  0  0  0  0  0  0  0  0  0  0  0  # atno 16609 bound_to 5620
   -9.4830  -11.1260   15.5620 LP  0  0  0  0  0  0  0  0  0  0  0  0  # atno 16610 bound_to 7788
   -9.8498   -9.5792   14.8743 LP  0  0  0  0  0  0  0  0  0  0  0  0  # atno 16611 bound_to 7788
  -11.0617  -12.5741   17.3258 LP  0  0  0  0  0  0  0  0  0  0  0  0  # atno 16612 bound_to 7874
    1.2008  -15.8604   23.6953 LP  0  0  0  0  0  0  0  0  0  0  0  0  # atno 16613 bound_to 1794
   -0.2430  -16.7035   23.2431 LP  0  0  0  0  0  0  0  0  0  0  0  0  # atno 16614 bound_to 1794
    0.3585  -14.2072   28.7638 LP  0  0  0  0  0  0  0  0  0  0  0  0  # atno 16615 bound_to 1824
   -0.9117  -15.1958   28.4885 LP  0  0  0  0  0  0  0  0  0  0  0  0  # atno 16616 bound_to 1824
   -1.9103  -16.4694   27.3825 LP  0  0  0  0  0  0  0  0  0  0  0  0  # atno 16617 bound_to 1854
  -15.2070  -15.3735   27.2543 LP  0  0  0  0  0  0  0  0  0  0  0  0  # atno 16622 bound_to 9318
  -15.9230  -13.9966   28.0233 LP  0  0  0  0  0  0  0  0  0  0  0  0  # atno 16623 bound_to 9318
  -17.4567  -14.0752   26.4304 LP  0  0  0  0  0  0  0  0  0  0  0  0  # atno 16624 bound_to 9342
  -21.2051   -8.0098   22.1046 LP  0  0  0  0  0  0  0  0  0  0  0  0  # atno 16627 bound_to 9433
  -21.7428   -7.1904   23.5327 LP  0  0  0  0  0  0  0  0  0  0  0  0  # atno 16628 bound_to 9433
  -16.3679   -8.1929   17.5836 LP  0  0  0  0  0  0  0  0  0  0  0  0  # atno 16629 bound_to 9492
  -16.6234   -6.9553   18.6179 LP  0  0  0  0  0  0  0  0  0  0  0  0  # atno 16630 bound_to 9492
  -17.9969  -12.7684   19.1872 LP  0  0  0  0  0  0  0  0  0  0  0  0  # atno 16631 bound_to 7667
  -16.6323  -12.4279   20.1981 LP  0  0  0  0  0  0  0  0  0  0  0  0  # atno 16632 bound_to 7667
  -15.8418  -13.1516   17.4654 LP  0  0  0  0  0  0  0  0  0  0  0  0  # atno 16634 bound_to 7723
  -12.1456  -12.4948   16.9806 LP  0  0  0  0  0  0  0  0  0  0  0  0  # atno 16635 bound_to 7726
  -13.4881  -12.6218   15.8937 LP  0  0  0  0  0  0  0  0  0  0  0  0  # atno 16636 bound_to 7726
  -20.7655   -5.8334   15.6881 LP  0  0  0  0  0  0  0  0  0  0  0  0  # atno 16637 bound_to 10539
  -20.0329   -5.8976   17.2562 LP  0  0  0  0  0  0  0  0  0  0  0  0  # atno 16638 bound_to 10539
   -5.0823  -15.3187   32.5065 LP  0  0  0  0  0  0  0  0  0  0  0  0  # atno 16639 bound_to 1884
   -6.5252  -15.7986   33.1018 LP  0  0  0  0  0  0  0  0  0  0  0  0  # atno 16640 bound_to 1884
  -16.7571  -17.2811   27.3939 LP  0  0  0  0  0  0  0  0  0  0  0  0  # atno 16641 bound_to 9315
   -5.1694  -16.3577   30.1452 LP  0  0  0  0  0  0  0  0  0  0  0  0  # atno 16642 bound_to 1879
   -2.0152  -17.2752   30.5271 LP  0  0  0  0  0  0  0  0  0  0  0  0  # atno 16643 bound_to 1857
   -1.6111  -16.4293   29.0706 LP  0  0  0  0  0  0  0  0  0  0  0  0  # atno 16644 bound_to 1857
  -18.6943  -17.2639   23.2305 LP  0  0  0  0  0  0  0  0  0  0  0  0  # atno 16645 bound_to 7565
  -17.0503  -17.8091   23.2346 LP  0  0  0  0  0  0  0  0  0  0  0  0  # atno 16646 bound_to 7565
  -20.1662  -18.3260   26.5751 LP  0  0  0  0  0  0  0  0  0  0  0  0  # atno 16647 bound_to 9289
  -20.1769  -16.6047   26.7682 LP  0  0  0  0  0  0  0  0  0  0  0  0  # atno 16648 bound_to 9289
  -18.7869  -19.7113   32.0437 LP  0  0  0  0  0  0  0  0  0  0  0  0  # atno 16649 bound_to 9236
  -18.0590  -18.4040   31.1713 LP  0  0  0  0  0  0  0  0  0  0  0  0  # atno 16650 bound_to 9236
  -20.1550  -18.1654   29.8520 LP  0  0  0  0  0  0  0  0  0  0  0  0  # atno 16653 bound_to 9286
  -20.9867  -21.2396   30.5485 LP  0  0  0  0  0  0  0  0  0  0  0  0  # atno 16654 bound_to 9233
  -11.6147  -22.6740   34.5226 LP  0  0  0  0  0  0  0  0  0  0  0  0  # atno 16655 bound_to 3365
  -11.2597  -23.8887   33.3400 LP  0  0  0  0  0  0  0  0  0  0  0  0  # atno 16656 bound_to 3365
   -7.1927  -24.2082   35.7547 LP  0  0  0  0  0  0  0  0  0  0  0  0  # atno 16657 bound_to 3362
   -3.8251  -19.0335   30.1574 LP  0  0  0  0  0  0  0  0  0  0  0  0  # atno 16658 bound_to 1922

> <Gold.Score>
     Fitness  S(hb_ext) S(vdw_ext)  S(hb_int)    S(int)      intcor
     32.11       2.03      23.09       0.00      -1.66      -0.76

> <Gold.Goldscore.Fitness>
32.1136

> <Gold.Goldscore.Internal.Vdw>
-1.7222

> <Gold.Goldscore.Internal.Torsion>
-0.7001

> <Gold.Goldscore.External.Vdw>
23.0884

> <Gold.Goldscore.Internal.HBond>
0.0000

> <Gold.Goldscore.External.HBond>
2.0298

> <Gold.Goldscore.Internal.Correction>
-0.7595

> <Gold.Goldscore.Hbonds>
donor molecule, donor type, donor heavy atom, donor atom, acceptor molecule, acceptor atom, score
      P1  H  1818  1839       L1    11  0.05
      L1  H     8    22       P1  7834  0.96

> <Gold.Goldscore.Internal.Vdw.Weighted>
-1.7222

> <Gold.Goldscore.Internal.Torsion.Weighted>
-0.7001

> <Gold.Goldscore.External.Vdw.Weighted>
31.7466

> <Gold.Goldscore.Internal.HBond.Weighted>
0.0000

> <Gold.Goldscore.External.HBond.Weighted>
2.0298

> <Gold.Goldscore.Internal.Correction.Weighted>
-0.7595

> <Gold.Rescore>
     Score     S(PLP)   S(hbond)     S(cho)   S(metal)  DE(clash)   DE(tors)     intcor
     -9.97      10.50       0.81       0.00       0.00       1.12       0.39       ----

> <Gold.PLP.Fitness>
-9.9677

> <Gold.PLP.PLP>
10.5001

> <Gold.PLP.part.hbond>
-3.0571

> <Gold.PLP.part.metal>
0.0000

> <Gold.PLP.part.buried>
13.7004

> <Gold.PLP.part.nonpolar>
-12.5031

> <Gold.PLP.part.repulsive>
5.7437

> <Gold.PLP.ligand.clash>
1.1178

> <Gold.PLP.ligand.torsion>
0.3937

> <Gold.PLP.Chemscore.Hbond>
0.8125

> <Gold.PLP.Chemscore.CHOScore>
0.0000

> <Gold.PLP.Chemscore.Metal>
0.0000

> <Gold.Chemscore.Hbonds>
donor molecule, donor type, donor heavy atom, donor atom, acceptor molecule, acceptor atom, score
      L1  H     8    22       P1  7834  0.78

> <Gold.PLP.Chemscore.Internal.Correction>
   9.000000E+99

#       Name:                CT1002167954
#       Creating user name   hitesit
#       Creation time:       Sun Apr 16 22:52:11 2023


#       File generated by GOLD software.
#

@<TRIPOS>MOLECULE
CT1002167954|ligand_prepared|mol2|1|dock10
    29    30     1
SMALL
NO_CHARGES


@<TRIPOS>ATOM
      1 C1         -12.5539   5.0358  17.3874 C.3            1 RES1               0.0000
      2 C2         -12.2707   5.5584  18.8106 C.ar           1 RES1               0.0000
      3 C3         -11.2002   4.6608  16.7913 C.2            1 RES1               0.0000
      4 C4         -13.5105   3.8594  17.5474 C.2            1 RES1               0.0000
      5 C5         -13.2267   6.0763  16.4621 C.3            1 RES1               0.0000
      6 C6         -12.1361   6.9225  19.0508 C.ar           1 RES1               0.0000
      7 C7         -12.1443   4.6903  19.8918 C.ar           1 RES1               0.0000
      8 N8         -10.9061   3.3341  16.6763 N.am           1 RES1               0.0000
      9 O9         -10.3871   5.5164  16.4639 O.2            1 RES1               0.0000
     10 N10        -13.0585   2.6127  17.2021 N.am           1 RES1               0.0000
     11 O11        -14.6461   3.9985  17.9850 O.2            1 RES1               0.0000
     12 C12        -13.7538   5.4904  15.1617 C.3            1 RES1               0.0000
     13 C13        -11.8871   7.4018  20.3262 C.ar           1 RES1               0.0000
     14 C14        -11.8951   5.1716  21.1664 C.ar           1 RES1               0.0000
     15 C15        -11.7896   2.2924  16.8029 C.2            1 RES1               0.0000
     16 C16        -11.7669   6.5268  21.3848 C.ar           1 RES1               0.0000
     17 O17        -11.4436   1.1394  16.5621 O.2            1 RES1               0.0000
     18 H18        -14.0597   6.5429  17.0024 H              1 RES1               0.0000
     19 H19        -12.4984   6.8619  16.2257 H              1 RES1               0.0000
     20 H20        -12.2251   7.6260  18.2297 H              1 RES1               0.0000
     21 H21        -12.2403   3.6200  19.7434 H              1 RES1               0.0000
     22 H22         -9.9400   3.0943  16.4779 H              1 RES1               0.0000
     23 H23        -13.7303   1.8530  17.2468 H              1 RES1               0.0000
     24 H24        -14.2158   6.2625  14.5500 H              1 RES1               0.0000
     25 H25        -12.9474   5.0399  14.5867 H              1 RES1               0.0000
     26 H26        -14.4994   4.7228  15.3588 H              1 RES1               0.0000
     27 H27        -11.7857   8.4691  20.4926 H              1 RES1               0.0000
     28 H28        -11.8006   4.4794  21.9965 H              1 RES1               0.0000
     29 H29        -11.5722   6.9026  22.3839 H              1 RES1               0.0000
@<TRIPOS>BOND
    1    1    2 1     
    2    1    3 1     
    3    1    4 1     
    4    1    5 1     
    5    2    6 ar    
    6    2    7 ar    
    7    3    8 1     
    8    3    9 2     
    9    4   10 1     
   10    4   11 2     
   11    5   12 1     
   12    5   18 1     
   13    5   19 1     
   14    6   13 ar    
   15    6   20 1     
   16    7   14 ar    
   17    7   21 1     
   18    8   15 1     
   19    8   22 1     
   20   10   15 1     
   21   10   23 1     
   22   12   24 1     
   23   12   25 1     
   24   12   26 1     
   25   13   16 ar    
   26   13   27 1     
   27   14   16 ar    
   28   14   28 1     
   29   15   17 2     
   30   16   29 1     
@<TRIPOS>SUBSTRUCTURE
      1 RES1           1
@<TRIPOS>SET
DONOR_HYDROGENS      STATIC     ATOMS    <user>   **** ""
2 22 23
ATOM$RED        STATIC     ATOMS    COLORGROUP SYSTEM
2 22 23
@<TRIPOS>COMMENT
> <Gold.Version>
2022.3.0

> <Gold.Id.Protein>
unknown|3mvj_clean|pdb

> <Gold.Protein.RotatedTorsions>
[ 11826 11799 11798 11795 ] final   57.83 input   60.01 | X-H torsion
[ 11911 11856 11855 11854 ] final   89.83 input   60.02 | X-H torsion
[ 10977 10959 10958 10956 ] final   88.78 input   60.00 | X-H torsion
[ 10969 10948 10949 10950 ] final  -44.28 input   32.02 | X-H torsion
[ 10737 10719 10718 10716 ] final  -68.87 input   60.01 | X-H torsion
[ 12076 12056 12057 12058 ] final  -71.61 input   63.02 | X-H torsion
[ 10918 10911 10912 10913 ] final -117.79 input  -92.90 | X-H torsion
[ 6164 6140 6141 6142 ] final  176.54 input   39.58 | X-H torsion
[ 6112 6105 6106 6107 ] final -175.64 input  -69.34 | X-H torsion
[ 5955 5918 5919 5920 ] final   25.91 input  125.26 | X-H torsion
[ 6027 5990 5991 5992 ] final  -77.48 input  110.40 | X-H torsion
[ 6075 6056 6057 6058 ] final -173.67 input  107.04 | X-H torsion
[ 11686 11631 11630 11629 ] final  145.29 input   60.02 | X-H torsion
[ 11211 11201 11202 11203 ] final  -34.20 input   18.84 | X-H torsion
[ 11249 11237 11238 11239 ] final  108.76 input  111.29 | X-H torsion
[ 11173 11153 11154 11155 ] final  141.85 input   30.50 | X-H torsion
[ 11292 11275 11276 11277 ] final  -36.70 input   58.53 | X-H torsion
[ 9451 9430 9431 9432 ] final  -23.34 input  110.06 | X-H torsion
[ 11493 11474 11475 11476 ] final  -52.66 input  115.95 | X-H torsion
[ 11385 11366 11367 11368 ] final   27.87 input  117.79 | X-H torsion
[ 11568 11550 11549 11547 ] final -150.89 input   59.97 | X-H torsion
[ 9369 9348 9346 9343 ] final   53.01 input   60.02 | X-H torsion
[ 9511 9481 9482 9483 ] final  178.36 input   75.78 | X-H torsion
[ 15475 15466 15465 15463 ] final   50.15 input   60.00 | X-H torsion
[ 7755 7731 7730 7729 ] final   54.66 input   60.02 | X-H torsion
[ 7846 7831 7832 7833 ] final   95.82 input  113.97 | X-H torsion
[ 5737 5717 5718 5719 ] final   56.55 input  137.93 | X-H torsion
[ 5778 5767 5768 5769 ] final  -98.60 input  116.46 | X-H torsion
[ 1839 1818 1819 1820 ] final  102.88 input   43.70 | X-H torsion
[ 5782 5772 5771 5768 ] final  173.95 input   59.97 | X-H torsion
[ 15411 15403 15404 15405 ] final -167.61 input  102.24 | X-H torsion
[ 1801 1791 1792 1793 ] final   96.36 input  -10.55 | X-H torsion
[ 5632 5617 5618 5619 ] final  111.85 input   93.34 | X-H torsion
[ 7884 7874 7875 7876 ] final -131.61 input   68.03 | X-H torsion
[ 1845 1824 1822 1819 ] final  -39.82 input   60.02 | X-H torsion
[ 1864 1854 1855 1856 ] final -143.60 input   57.50 | X-H torsion
[ 9363 9342 9343 9344 ] final  -65.29 input   55.58 | X-H torsion
[ 9519 9492 9491 9489 ] final  126.14 input   60.02 | X-H torsion
[ 7745 7723 7724 7725 ] final  -10.22 input   17.81 | X-H torsion
[ 1896 1884 1883 1880 ] final  -52.45 input   60.01 | X-H torsion
[ 9325 9315 9316 9317 ] final  -39.03 input  -36.21 | X-H torsion
[ 1892 1879 1880 1881 ] final   96.88 input   98.21 | X-H torsion
[ 9302 9286 9287 9288 ] final  -91.02 input   37.00 | X-H torsion
[ 9263 9233 9234 9235 ] final   89.62 input   95.32 | X-H torsion
[ 3370 3362 3363 3364 ] final  -31.57 input   97.92 | X-H torsion
[ 1947 1922 1923 1924 ] final   -2.53 input  104.43 | X-H torsion
[ 12159 12148 12149 12150 ] final  -26.11 input  116.04 | X-H torsion
[ 11673 11649 11648 11647 ] final -155.29 input   59.99 | X-H torsion
[ 12008 11984 11985 11986 ] final -155.67 input   61.04 | X-H torsion
[ 11113 11093 11094 11095 ] final   -5.84 input   39.50 | X-H torsion
[ 7924 7916 7917 7918 ] final   98.50 input   66.66 | X-H torsion
[ 8650 8630 8631 8632 ] final   20.28 input   75.31 | X-H torsion
[ 9566 9536 9537 9538 ] final   42.79 input  103.50 | X-H torsion
[ 16472 10886 10885 10884 ] final  115.07 input    0.00 | X-H torsion
[ 16475 11004 11003 11002 ] final -176.14 input    0.00 | X-H torsion
[ 16477 10914 10913 10912 ] final   65.79 input    0.00 | X-H torsion
[ 16479 10951 10950 10949 ] final  -40.53 input   -0.00 | X-H torsion
[ 16484 11987 11986 11985 ] final   -2.43 input    0.00 | X-H torsion
[ 16486 12059 12058 12057 ] final -110.70 input   -0.00 | X-H torsion
[ 16490 11046 11045 11044 ] final -159.49 input    0.00 | X-H torsion
[ 16500 6108 6107 6106 ] final  -52.69 input    0.00 | X-H torsion
[ 16503 5921 5920 5919 ] final -109.14 input   -0.00 | X-H torsion
[ 16506 6059 6058 6057 ] final  -21.76 input    0.00 | X-H torsion
[ 16510 5858 5857 5856 ] final   83.37 input    0.00 | X-H torsion
[ 16518 5993 5992 5991 ] final    4.90 input   -0.00 | X-H torsion
[ 16523 11156 11155 11154 ] final  108.75 input    0.00 | X-H torsion
[ 16528 11204 11203 11202 ] final  -79.64 input    0.00 | X-H torsion
[ 16540 11096 11095 11094 ] final   87.62 input   -0.00 | X-H torsion
[ 16544 10768 10767 10766 ] final   73.54 input   -0.00 | X-H torsion
[ 16552 11240 11239 11238 ] final    6.08 input    0.00 | X-H torsion
[ 16558 11278 11277 11276 ] final -159.84 input   -0.00 | X-H torsion
[ 16562 11325 11324 11323 ] final  -58.49 input   -0.00 | X-H torsion
[ 16566 9387 9386 9385 ] final -162.65 input   -0.00 | X-H torsion
[ 16570 9345 9344 9343 ] final  -61.41 input    0.00 | X-H torsion
[ 16579 5720 5719 5718 ] final   53.87 input    0.00 | X-H torsion
[ 16592 1821 1820 1819 ] final  115.93 input    0.00 | X-H torsion
[ 16594 7834 7833 7832 ] final  -43.08 input    0.00 | X-H torsion
[ 16600 1745 1744 1743 ] final  -38.87 input    0.00 | X-H torsion
[ 16608 5620 5619 5618 ] final  149.73 input   -0.00 | X-H torsion
[ 16610 7788 7787 7786 ] final   62.36 input   -0.00 | X-H torsion
[ 16613 1794 1793 1792 ] final  -99.35 input   -0.00 | X-H torsion
[ 16622 9318 9317 9316 ] final  -13.51 input   -0.00 | X-H torsion
[ 16627 9433 9432 9431 ] final  -68.40 input    0.00 | X-H torsion
[ 16631 7667 7666 7665 ] final   17.40 input   -0.00 | X-H torsion
[ 16635 7726 7725 7724 ] final  -23.18 input    0.00 | X-H torsion
[ 16637 10539 10538 10537 ] final  -58.34 input   -0.00 | X-H torsion
[ 16643 1857 1856 1855 ] final   -1.01 input    0.00 | X-H torsion
[ 16645 7565 7564 7563 ] final  155.14 input    0.00 | X-H torsion
[ 16647 9289 9288 9287 ] final  148.91 input    0.00 | X-H torsion
[ 16649 9236 9235 9234 ] final  110.20 input    0.00 | X-H torsion
[ 16655 3365 3364 3363 ] final -114.77 input    0.00 | X-H torsion

> <Gold.Protein.ActiveResidues>
 LEU49   GLY50   THR51   GLY52   SER53   PHE54   VAL57   LEU82   LYS83   GLN84  
 HIS87   GLU127  PHE129  SER130  LEU132  ARG133  ARG134  ILE135  GLY136  ARG137 
 ARG165  ASP166  LEU167  LYS168  PRO169  GLU170  ASN171  LEU172  LEU173  ASP184 
 GLY186  PHE187  TPO197  LEU198  CYS199  GLY200  THR201  PRO202  GLU203  TYR204 
 LEU205  ILE209  ILE210  VAL226  LEU227  TYR229  GLU230  ALA233  GLY234  TYR235 
 PRO236  PRO237  PHE238  PHE239  ALA240  ASP241  GLN242  PRO243  ILE244  GLN245 
 ILE246  TYR247  GLU248  LYS249  ILE250  VAL251  SER252  LYS254  ARG256  PHE257 
 PRO258  SER259  PHE327  ASP328  TYR330 

> <Gold.Protein.RotatedAtoms>
    0.6456  -14.8149   20.5800 H   0  0  0  0  0  0  0  0  0  0  0  0  # atno 1801 bound_to 1791
   -0.4814  -13.3773   24.5476 H   0  0  0  0  0  0  0  0  0  0  0  0  # atno 1839 bound_to 1818
   -1.1959  -13.8412   28.0334 H   0  0  0  0  0  0  0  0  0  0  0  0  # atno 1845 bound_to 1824
   -2.7752  -15.2917   26.4994 H   0  0  0  0  0  0  0  0  0  0  0  0  # atno 1864 bound_to 1854
   -5.4326  -16.9691   29.9773 H   0  0  0  0  0  0  0  0  0  0  0  0  # atno 1892 bound_to 1879
   -5.0798  -15.3268   32.4529 H   0  0  0  0  0  0  0  0  0  0  0  0  # atno 1896 bound_to 1884
   -3.6698  -19.0738   30.3383 H   0  0  0  0  0  0  0  0  0  0  0  0  # atno 1947 bound_to 1922
   -8.3980  -25.0227   36.5799 H   0  0  0  0  0  0  0  0  0  0  0  0  # atno 3370 bound_to 3362
   -3.9110   -9.9742   14.2587 H   0  0  0  0  0  0  0  0  0  0  0  0  # atno 5632 bound_to 5617
   -7.9910   -7.9426   14.5211 H   0  0  0  0  0  0  0  0  0  0  0  0  # atno 5737 bound_to 5717
   -7.3382   -5.4658   16.1252 H   0  0  0  0  0  0  0  0  0  0  0  0  # atno 5778 bound_to 5767
   -3.0557   -6.3574   14.0942 H   0  0  0  0  0  0  0  0  0  0  0  0  # atno 5782 bound_to 5772
   -8.5100   -1.6117   14.1330 H   0  0  0  0  0  0  0  0  0  0  0  0  # atno 5955 bound_to 5918
   -7.7058    0.7174   15.1103 H   0  0  0  0  0  0  0  0  0  0  0  0  # atno 6027 bound_to 5990
   -6.9559    0.8944   11.5305 H   0  0  0  0  0  0  0  0  0  0  0  0  # atno 6075 bound_to 6056
   -9.3409    2.7884   12.6468 H   0  0  0  0  0  0  0  0  0  0  0  0  # atno 6112 bound_to 6105
  -13.1128    2.5512   12.4900 H   0  0  0  0  0  0  0  0  0  0  0  0  # atno 6164 bound_to 6140
  -14.7472  -13.4044   17.3128 H   0  0  0  0  0  0  0  0  0  0  0  0  # atno 7745 bound_to 7723
  -12.9013  -12.3408   24.4441 H   0  0  0  0  0  0  0  0  0  0  0  0  # atno 7755 bound_to 7731
  -11.5395  -13.2856   24.4290 H   0  0  0  0  0  0  0  0  0  0  0  0  # atno 7756 bound_to 7731
  -11.4493  -11.6937   23.9739 H   0  0  0  0  0  0  0  0  0  0  0  0  # atno 7757 bound_to 7731
  -11.4001  -10.2943   18.3285 H   0  0  0  0  0  0  0  0  0  0  0  0  # atno 7846 bound_to 7831
   -9.4916  -12.5450   18.0409 H   0  0  0  0  0  0  0  0  0  0  0  0  # atno 7884 bound_to 7874
  -10.6318  -12.8170   15.3866 H   0  0  0  0  0  0  0  0  0  0  0  0  # atno 7924 bound_to 7916
  -13.6248  -22.6556   22.3979 H   0  0  0  0  0  0  0  0  0  0  0  0  # atno 8650 bound_to 8630
  -21.1363  -21.1012   32.0779 H   0  0  0  0  0  0  0  0  0  0  0  0  # atno 9263 bound_to 9233
  -20.0352  -18.2619   30.0315 H   0  0  0  0  0  0  0  0  0  0  0  0  # atno 9302 bound_to 9286
  -16.7311  -16.9595   27.6427 H   0  0  0  0  0  0  0  0  0  0  0  0  # atno 9325 bound_to 9315
  -17.6037  -13.9779   26.4205 H   0  0  0  0  0  0  0  0  0  0  0  0  # atno 9363 bound_to 9342
  -15.1266  -13.9308   24.4828 H   0  0  0  0  0  0  0  0  0  0  0  0  # atno 9369 bound_to 9348
  -19.1180   -9.1910   25.9232 H   0  0  0  0  0  0  0  0  0  0  0  0  # atno 9451 bound_to 9430
  -19.1023   -8.8968   23.2729 H   0  0  0  0  0  0  0  0  0  0  0  0  # atno 9511 bound_to 9481
  -16.6342   -8.2273   17.3913 H   0  0  0  0  0  0  0  0  0  0  0  0  # atno 9519 bound_to 9492
  -21.8889  -10.3807   24.5177 H   0  0  0  0  0  0  0  0  0  0  0  0  # atno 9566 bound_to 9536
  -23.7324    1.0901   18.9177 H   0  0  0  0  0  0  0  0  0  0  0  0  # atno 10737 bound_to 10719
  -17.1227    0.0157   13.7664 H   0  0  0  0  0  0  0  0  0  0  0  0  # atno 10918 bound_to 10911
  -16.9418   -0.1312   16.3875 H   0  0  0  0  0  0  0  0  0  0  0  0  # atno 10969 bound_to 10948
  -21.9141    5.5323   18.1251 H   0  0  0  0  0  0  0  0  0  0  0  0  # atno 10977 bound_to 10959
  -21.7940   -2.3709   22.3289 H   0  0  0  0  0  0  0  0  0  0  0  0  # atno 11113 bound_to 11093
  -21.0946   -1.3895   24.4368 H   0  0  0  0  0  0  0  0  0  0  0  0  # atno 11173 bound_to 11153
  -18.2369   -0.7729   27.7788 H   0  0  0  0  0  0  0  0  0  0  0  0  # atno 11211 bound_to 11201
  -18.2439    1.2116   31.7476 H   0  0  0  0  0  0  0  0  0  0  0  0  # atno 11249 bound_to 11237
  -17.2897   -1.4164   32.0690 H   0  0  0  0  0  0  0  0  0  0  0  0  # atno 11292 bound_to 11275
  -19.8185   -5.0123   33.9405 H   0  0  0  0  0  0  0  0  0  0  0  0  # atno 11385 bound_to 11366
  -22.9115   -3.1987   31.4945 H   0  0  0  0  0  0  0  0  0  0  0  0  # atno 11493 bound_to 11474
  -19.3042  -11.1705   32.5055 H   0  0  0  0  0  0  0  0  0  0  0  0  # atno 11568 bound_to 11550
  -24.7188    2.9495   27.4930 H   0  0  0  0  0  0  0  0  0  0  0  0  # atno 11673 bound_to 11649
  -25.4661    2.0572   28.6739 H   0  0  0  0  0  0  0  0  0  0  0  0  # atno 11674 bound_to 11649
  -23.9370    2.6466   28.9236 H   0  0  0  0  0  0  0  0  0  0  0  0  # atno 11675 bound_to 11649
   -9.2568    8.6493   26.9189 H   0  0  0  0  0  0  0  0  0  0  0  0  # atno 11686 bound_to 11631
   -8.7121    8.0293   25.4820 H   0  0  0  0  0  0  0  0  0  0  0  0  # atno 11687 bound_to 11631
   -7.8715    9.2453   26.2304 H   0  0  0  0  0  0  0  0  0  0  0  0  # atno 11688 bound_to 11631
  -13.3630   16.9202   23.1126 H   0  0  0  0  0  0  0  0  0  0  0  0  # atno 11826 bound_to 11799
  -18.1828   15.3915   25.2987 H   0  0  0  0  0  0  0  0  0  0  0  0  # atno 11911 bound_to 11856
  -17.7384   16.4057   24.0650 H   0  0  0  0  0  0  0  0  0  0  0  0  # atno 11912 bound_to 11856
  -16.8188   15.0708   24.4123 H   0  0  0  0  0  0  0  0  0  0  0  0  # atno 11913 bound_to 11856
  -29.4025    1.1936   20.1530 H   0  0  0  0  0  0  0  0  0  0  0  0  # atno 12008 bound_to 11984
  -27.2905    3.2783   17.5713 H   0  0  0  0  0  0  0  0  0  0  0  0  # atno 12076 bound_to 12056
  -24.7661    6.4244   12.5092 H   0  0  0  0  0  0  0  0  0  0  0  0  # atno 12159 bound_to 12148
    0.6983   -7.5174   17.3506 H   0  0  0  0  0  0  0  0  0  0  0  0  # atno 15411 bound_to 15403
   -1.6397  -10.8359   21.0442 H   0  0  0  0  0  0  0  0  0  0  0  0  # atno 15475 bound_to 15466
  -12.3217   16.0404   22.2241 LP  0  0  0  0  0  0  0  0  0  0  0  0  # atno 16466 bound_to 11799
  -13.2065   15.3255   23.3957 LP  0  0  0  0  0  0  0  0  0  0  0  0  # atno 16467 bound_to 11799
  -22.5585    4.2400   17.3747 LP  0  0  0  0  0  0  0  0  0  0  0  0  # atno 16468 bound_to 10959
  -21.5240    5.2194   16.5764 LP  0  0  0  0  0  0  0  0  0  0  0  0  # atno 16469 bound_to 10959
  -17.2735    3.3025   15.3089 LP  0  0  0  0  0  0  0  0  0  0  0  0  # atno 16472 bound_to 10886
  -17.4319    3.6346   13.6163 LP  0  0  0  0  0  0  0  0  0  0  0  0  # atno 16473 bound_to 10886
  -16.7297    1.5663   16.7700 LP  0  0  0  0  0  0  0  0  0  0  0  0  # atno 16474 bound_to 10948
  -21.5066   -0.2333   21.2813 LP  0  0  0  0  0  0  0  0  0  0  0  0  # atno 16475 bound_to 11004
  -19.7898   -0.1938   21.0561 LP  0  0  0  0  0  0  0  0  0  0  0  0  # atno 16476 bound_to 11004
  -14.2400    1.9823   17.2076 LP  0  0  0  0  0  0  0  0  0  0  0  0  # atno 16477 bound_to 10914
  -14.2710    0.3331   17.7361 LP  0  0  0  0  0  0  0  0  0  0  0  0  # atno 16478 bound_to 10914
  -19.5125    0.1612   17.3353 LP  0  0  0  0  0  0  0  0  0  0  0  0  # atno 16479 bound_to 10951
  -19.5709   -1.5663   17.4462 LP  0  0  0  0  0  0  0  0  0  0  0  0  # atno 16480 bound_to 10951
  -24.8394    1.4028   17.7668 LP  0  0  0  0  0  0  0  0  0  0  0  0  # atno 16482 bound_to 10719
  -23.2848    1.8545   17.5528 LP  0  0  0  0  0  0  0  0  0  0  0  0  # atno 16483 bound_to 10719
  -26.1827    1.3441   18.7399 LP  0  0  0  0  0  0  0  0  0  0  0  0  # atno 16484 bound_to 11987
  -25.7919    1.6604   17.0824 LP  0  0  0  0  0  0  0  0  0  0  0  0  # atno 16485 bound_to 11987
  -27.1432    5.8838   14.4076 LP  0  0  0  0  0  0  0  0  0  0  0  0  # atno 16486 bound_to 12059
  -27.0951    5.7273   16.1319 LP  0  0  0  0  0  0  0  0  0  0  0  0  # atno 16487 bound_to 12059
  -24.3104   -0.5155   23.2301 LP  0  0  0  0  0  0  0  0  0  0  0  0  # atno 16490 bound_to 11046
  -25.0747   -0.6004   21.6781 LP  0  0  0  0  0  0  0  0  0  0  0  0  # atno 16491 bound_to 11046
  -28.7132    3.1157   16.5709 LP  0  0  0  0  0  0  0  0  0  0  0  0  # atno 16492 bound_to 12056
  -17.7003    1.4630   14.5645 LP  0  0  0  0  0  0  0  0  0  0  0  0  # atno 16493 bound_to 10911
  -12.3911    0.5615   14.0135 LP  0  0  0  0  0  0  0  0  0  0  0  0  # atno 16500 bound_to 6108
  -13.9868    1.2045   13.8133 LP  0  0  0  0  0  0  0  0  0  0  0  0  # atno 16501 bound_to 6108
  -12.3130    2.3216   10.9529 LP  0  0  0  0  0  0  0  0  0  0  0  0  # atno 16502 bound_to 6140
   -8.8496    2.3298   14.6364 LP  0  0  0  0  0  0  0  0  0  0  0  0  # atno 16503 bound_to 5921
   -8.2715    2.2910   16.2687 LP  0  0  0  0  0  0  0  0  0  0  0  0  # atno 16504 bound_to 5921
  -10.3198    1.5540   11.8833 LP  0  0  0  0  0  0  0  0  0  0  0  0  # atno 16505 bound_to 6105
   -9.2548    4.5986   10.5854 LP  0  0  0  0  0  0  0  0  0  0  0  0  # atno 16506 bound_to 6059
  -10.8208    4.4366   11.3076 LP  0  0  0  0  0  0  0  0  0  0  0  0  # atno 16507 bound_to 6059
  -11.0445    0.2300   13.7395 LP  0  0  0  0  0  0  0  0  0  0  0  0  # atno 16510 bound_to 5858
   -9.4712    0.5426   13.0859 LP  0  0  0  0  0  0  0  0  0  0  0  0  # atno 16511 bound_to 5858
   -9.8680   -2.1284   15.1016 LP  0  0  0  0  0  0  0  0  0  0  0  0  # atno 16516 bound_to 5918
   -6.9544   -0.6049   14.2377 LP  0  0  0  0  0  0  0  0  0  0  0  0  # atno 16517 bound_to 5990
   -6.1044    3.7716   12.9782 LP  0  0  0  0  0  0  0  0  0  0  0  0  # atno 16518 bound_to 5993
   -7.3199    3.8046   11.7447 LP  0  0  0  0  0  0  0  0  0  0  0  0  # atno 16519 bound_to 5993
   -8.1157    1.4123   12.7212 LP  0  0  0  0  0  0  0  0  0  0  0  0  # atno 16520 bound_to 6056
  -21.5794    0.4115   27.9087 LP  0  0  0  0  0  0  0  0  0  0  0  0  # atno 16523 bound_to 11156
  -20.7065    1.3206   26.7206 LP  0  0  0  0  0  0  0  0  0  0  0  0  # atno 16524 bound_to 11156
  -19.9685   -0.9470   27.9910 LP  0  0  0  0  0  0  0  0  0  0  0  0  # atno 16525 bound_to 11201
  -16.8666   -1.6673   29.7388 LP  0  0  0  0  0  0  0  0  0  0  0  0  # atno 16528 bound_to 11204
  -16.0174   -0.2470   29.2275 LP  0  0  0  0  0  0  0  0  0  0  0  0  # atno 16529 bound_to 11204
  -17.5928    0.2142   30.4686 LP  0  0  0  0  0  0  0  0  0  0  0  0  # atno 16530 bound_to 11237
  -21.8924   -1.3912   25.9950 LP  0  0  0  0  0  0  0  0  0  0  0  0  # atno 16533 bound_to 11153
  -20.1566   -3.5631   23.8794 LP  0  0  0  0  0  0  0  0  0  0  0  0  # atno 16540 bound_to 11096
  -20.7704   -4.1662   25.3826 LP  0  0  0  0  0  0  0  0  0  0  0  0  # atno 16541 bound_to 11096
  -15.9715   -2.0924   14.9879 LP  0  0  0  0  0  0  0  0  0  0  0  0  # atno 16544 bound_to 10768
  -17.0315   -1.2785   13.8861 LP  0  0  0  0  0  0  0  0  0  0  0  0  # atno 16545 bound_to 10768
  -14.2349   -1.0145   32.2693 LP  0  0  0  0  0  0  0  0  0  0  0  0  # atno 16552 bound_to 11240
  -15.0135   -2.4519   32.8419 LP  0  0  0  0  0  0  0  0  0  0  0  0  # atno 16553 bound_to 11240
  -17.2163   -0.6319   33.6290 LP  0  0  0  0  0  0  0  0  0  0  0  0  # atno 16554 bound_to 11275
  -19.8398   -4.1843   32.3046 LP  0  0  0  0  0  0  0  0  0  0  0  0  # atno 16558 bound_to 11278
  -19.2960   -2.5411   32.2400 LP  0  0  0  0  0  0  0  0  0  0  0  0  # atno 16559 bound_to 11278
  -17.9054   -7.9599   26.1970 LP  0  0  0  0  0  0  0  0  0  0  0  0  # atno 16561 bound_to 9430
  -20.8927   -5.5820   31.2866 LP  0  0  0  0  0  0  0  0  0  0  0  0  # atno 16562 bound_to 11325
  -21.5061   -6.9658   32.1285 LP  0  0  0  0  0  0  0  0  0  0  0  0  # atno 16563 bound_to 11325
  -21.2269   -3.6798   31.5264 LP  0  0  0  0  0  0  0  0  0  0  0  0  # atno 16564 bound_to 11474
  -19.6790   -6.7208   34.2362 LP  0  0  0  0  0  0  0  0  0  0  0  0  # atno 16565 bound_to 11366
  -21.1761   -8.4556   25.9848 LP  0  0  0  0  0  0  0  0  0  0  0  0  # atno 16566 bound_to 9387
  -21.0992   -9.0369   27.6146 LP  0  0  0  0  0  0  0  0  0  0  0  0  # atno 16567 bound_to 9387
  -18.6286   -9.8393   31.8579 LP  0  0  0  0  0  0  0  0  0  0  0  0  # atno 16568 bound_to 11550
  -19.2327  -11.0061   30.8882 LP  0  0  0  0  0  0  0  0  0  0  0  0  # atno 16569 bound_to 11550
  -18.4305  -11.2299   24.4059 LP  0  0  0  0  0  0  0  0  0  0  0  0  # atno 16570 bound_to 9345
  -19.4384  -11.5892   25.7679 LP  0  0  0  0  0  0  0  0  0  0  0  0  # atno 16571 bound_to 9345
  -13.9821  -13.1522   25.3380 LP  0  0  0  0  0  0  0  0  0  0  0  0  # atno 16572 bound_to 9348
  -14.0795  -12.9455   23.7210 LP  0  0  0  0  0  0  0  0  0  0  0  0  # atno 16573 bound_to 9348
  -20.0444   -9.6389   24.5467 LP  0  0  0  0  0  0  0  0  0  0  0  0  # atno 16574 bound_to 9481
   -8.8040   -3.8931   16.6014 LP  0  0  0  0  0  0  0  0  0  0  0  0  # atno 16579 bound_to 5720
   -8.1355   -3.5387   15.0434 LP  0  0  0  0  0  0  0  0  0  0  0  0  # atno 16580 bound_to 5720
   -1.3884   -9.2317   21.1497 LP  0  0  0  0  0  0  0  0  0  0  0  0  # atno 16587 bound_to 15466
   -2.1823  -10.0168   22.3413 LP  0  0  0  0  0  0  0  0  0  0  0  0  # atno 16588 bound_to 15466
  -10.6078   -9.9056   16.8109 LP  0  0  0  0  0  0  0  0  0  0  0  0  # atno 16591 bound_to 7831
   -3.9632  -13.8857   26.0645 LP  0  0  0  0  0  0  0  0  0  0  0  0  # atno 16592 bound_to 1821
   -2.7134  -13.0706   26.9441 LP  0  0  0  0  0  0  0  0  0  0  0  0  # atno 16593 bound_to 1821
   -7.2072  -12.3378   17.6690 LP  0  0  0  0  0  0  0  0  0  0  0  0  # atno 16594 bound_to 7834
   -7.9318  -13.7691   18.3219 LP  0  0  0  0  0  0  0  0  0  0  0  0  # atno 16595 bound_to 7834
   -9.7253   -7.7412   14.3380 LP  0  0  0  0  0  0  0  0  0  0  0  0  # atno 16596 bound_to 5717
   -6.5481   -6.4841   14.9411 LP  0  0  0  0  0  0  0  0  0  0  0  0  # atno 16597 bound_to 5767
   -0.0404  -12.3521   18.9092 LP  0  0  0  0  0  0  0  0  0  0  0  0  # atno 16600 bound_to 1745
   -1.1553  -13.4018   19.7184 LP  0  0  0  0  0  0  0  0  0  0  0  0  # atno 16601 bound_to 1745
   -1.3839  -14.6297   23.7247 LP  0  0  0  0  0  0  0  0  0  0  0  0  # atno 16602 bound_to 1818
   -4.2826   -5.6447   13.2974 LP  0  0  0  0  0  0  0  0  0  0  0  0  # atno 16603 bound_to 5772
   -4.5794   -6.8820   14.3209 LP  0  0  0  0  0  0  0  0  0  0  0  0  # atno 16604 bound_to 5772
    1.8114   -8.8069   17.7427 LP  0  0  0  0  0  0  0  0  0  0  0  0  # atno 16605 bound_to 15403
    1.4975  -13.5853   21.4896 LP  0  0  0  0  0  0  0  0  0  0  0  0  # atno 16606 bound_to 1791
   -4.3380  -10.2661   12.5852 LP  0  0  0  0  0  0  0  0  0  0  0  0  # atno 16607 bound_to 5617
   -6.5447   -7.4147   12.5678 LP  0  0  0  0  0  0  0  0  0  0  0  0  # atno 16608 bound_to 5620
   -5.5269   -7.7513   13.9282 LP  0  0  0  0  0  0  0  0  0  0  0  0  # atno 16609 bound_to 5620
   -9.6887   -9.5124   15.0097 LP  0  0  0  0  0  0  0  0  0  0  0  0  # atno 16610 bound_to 7788
   -9.6441  -11.1929   15.4267 LP  0  0  0  0  0  0  0  0  0  0  0  0  # atno 16611 bound_to 7788
  -10.9608  -12.5144   17.1015 LP  0  0  0  0  0  0  0  0  0  0  0  0  # atno 16612 bound_to 7874
   -0.2669  -16.7170   23.4015 LP  0  0  0  0  0  0  0  0  0  0  0  0  # atno 16613 bound_to 1794
    1.2246  -15.8469   23.5369 LP  0  0  0  0  0  0  0  0  0  0  0  0  # atno 16614 bound_to 1794
    0.2990  -13.9283   28.6703 LP  0  0  0  0  0  0  0  0  0  0  0  0  # atno 16615 bound_to 1824
   -0.6461  -15.2588   28.6130 LP  0  0  0  0  0  0  0  0  0  0  0  0  # atno 16616 bound_to 1824
   -2.0660  -16.7562   27.1569 LP  0  0  0  0  0  0  0  0  0  0  0  0  # atno 16617 bound_to 1854
  -15.8814  -15.4389   27.9245 LP  0  0  0  0  0  0  0  0  0  0  0  0  # atno 16622 bound_to 9318
  -15.2486  -13.9312   27.3531 LP  0  0  0  0  0  0  0  0  0  0  0  0  # atno 16623 bound_to 9318
  -16.9786  -13.9989   24.7864 LP  0  0  0  0  0  0  0  0  0  0  0  0  # atno 16624 bound_to 9342
  -21.9279   -7.5112   23.5508 LP  0  0  0  0  0  0  0  0  0  0  0  0  # atno 16627 bound_to 9433
  -21.0201   -7.6890   22.0865 LP  0  0  0  0  0  0  0  0  0  0  0  0  # atno 16628 bound_to 9433
  -16.3615   -7.1556   18.5851 LP  0  0  0  0  0  0  0  0  0  0  0  0  # atno 16629 bound_to 9492
  -17.7696   -7.1210   17.7589 LP  0  0  0  0  0  0  0  0  0  0  0  0  # atno 16630 bound_to 9492
  -17.7048  -13.3541   19.8548 LP  0  0  0  0  0  0  0  0  0  0  0  0  # atno 16631 bound_to 7667
  -16.9244  -11.8422   19.5305 LP  0  0  0  0  0  0  0  0  0  0  0  0  # atno 16632 bound_to 7667
  -15.7350  -13.3140   18.7595 LP  0  0  0  0  0  0  0  0  0  0  0  0  # atno 16634 bound_to 7723
  -13.0603  -13.0865   17.0788 LP  0  0  0  0  0  0  0  0  0  0  0  0  # atno 16635 bound_to 7726
  -12.5733  -12.0300   15.7955 LP  0  0  0  0  0  0  0  0  0  0  0  0  # atno 16636 bound_to 7726
  -21.1791   -5.6271   16.1808 LP  0  0  0  0  0  0  0  0  0  0  0  0  # atno 16637 bound_to 10539
  -19.6193   -6.1039   16.7635 LP  0  0  0  0  0  0  0  0  0  0  0  0  # atno 16638 bound_to 10539
   -6.4865  -15.7795   33.1338 LP  0  0  0  0  0  0  0  0  0  0  0  0  # atno 16639 bound_to 1884
   -6.2783  -15.9094   31.5193 LP  0  0  0  0  0  0  0  0  0  0  0  0  # atno 16640 bound_to 1884
  -18.4285  -17.3199   27.3997 LP  0  0  0  0  0  0  0  0  0  0  0  0  # atno 16641 bound_to 9315
   -3.7242  -16.7839   29.6517 LP  0  0  0  0  0  0  0  0  0  0  0  0  # atno 16642 bound_to 1879
   -1.6083  -16.5550   29.0116 LP  0  0  0  0  0  0  0  0  0  0  0  0  # atno 16643 bound_to 1857
   -2.0180  -17.1495   30.5860 LP  0  0  0  0  0  0  0  0  0  0  0  0  # atno 16644 bound_to 1857
  -17.0225  -17.4490   23.0906 LP  0  0  0  0  0  0  0  0  0  0  0  0  # atno 16645 bound_to 7565
  -18.7221  -17.6240   23.3746 LP  0  0  0  0  0  0  0  0  0  0  0  0  # atno 16646 bound_to 7565
  -20.0376  -16.6260   26.5055 LP  0  0  0  0  0  0  0  0  0  0  0  0  # atno 16647 bound_to 9289
  -20.3054  -18.3047   26.8378 LP  0  0  0  0  0  0  0  0  0  0  0  0  # atno 16648 bound_to 9289
  -18.1822  -19.8011   31.2342 LP  0  0  0  0  0  0  0  0  0  0  0  0  # atno 16649 bound_to 9236
  -18.6637  -18.3142   31.9808 LP  0  0  0  0  0  0  0  0  0  0  0  0  # atno 16650 bound_to 9236
  -20.2316  -19.6045   28.9294 LP  0  0  0  0  0  0  0  0  0  0  0  0  # atno 16653 bound_to 9286
  -21.7869  -21.1367   30.4544 LP  0  0  0  0  0  0  0  0  0  0  0  0  # atno 16654 bound_to 9233
  -12.0664  -23.3661   34.5203 LP  0  0  0  0  0  0  0  0  0  0  0  0  # atno 16655 bound_to 3365
  -10.8080  -23.1966   33.3422 LP  0  0  0  0  0  0  0  0  0  0  0  0  # atno 16656 bound_to 3365
   -7.1317  -23.8992   36.1449 LP  0  0  0  0  0  0  0  0  0  0  0  0  # atno 16657 bound_to 3362
   -5.2575  -19.5102   30.9390 LP  0  0  0  0  0  0  0  0  0  0  0  0  # atno 16658 bound_to 1922

> <Gold.Score>
     Fitness  S(hb_ext) S(vdw_ext)  S(hb_int)    S(int)      intcor
     31.14       2.07      21.55       0.00      -0.55      -0.76

> <Gold.Goldscore.Fitness>
31.1432

> <Gold.Goldscore.Internal.Vdw>
-0.7439

> <Gold.Goldscore.Internal.Torsion>
-0.5668

> <Gold.Goldscore.External.Vdw>
21.5475

> <Gold.Goldscore.Internal.HBond>
0.0000

> <Gold.Goldscore.External.HBond>
2.0676

> <Gold.Goldscore.Internal.Correction>
-0.7585

> <Gold.Goldscore.Hbonds>
donor molecule, donor type, donor heavy atom, donor atom, acceptor molecule, acceptor atom, score
      P1  H  5925  5963       L1    17  0.07
      L1  H     8    22       P1  5921  0.08
      L1  H    10    23       P1 10914  0.73

> <Gold.Goldscore.Internal.Vdw.Weighted>
-0.7439

> <Gold.Goldscore.Internal.Torsion.Weighted>
-0.5668

> <Gold.Goldscore.External.Vdw.Weighted>
29.6278

> <Gold.Goldscore.Internal.HBond.Weighted>
0.0000

> <Gold.Goldscore.External.HBond.Weighted>
2.0676

> <Gold.Goldscore.Internal.Correction.Weighted>
-0.7585

> <Gold.Rescore>
     Score     S(PLP)   S(hbond)     S(cho)   S(metal)  DE(clash)   DE(tors)     intcor
     24.14     -19.78       2.03       0.00       0.00       0.00       0.86       ----

> <Gold.PLP.Fitness>
24.1380

> <Gold.PLP.PLP>
-19.7783

> <Gold.PLP.part.hbond>
-2.5706

> <Gold.PLP.part.metal>
0.0000

> <Gold.PLP.part.buried>
5.9321

> <Gold.PLP.part.nonpolar>
-24.0339

> <Gold.PLP.part.repulsive>
1.7316

> <Gold.PLP.ligand.clash>
0.0000

> <Gold.PLP.ligand.torsion>
0.8650

> <Gold.PLP.Chemscore.Hbond>
2.0299

> <Gold.PLP.Chemscore.CHOScore>
0.0000

> <Gold.PLP.Chemscore.Metal>
0.0000

> <Gold.Chemscore.Hbonds>
donor molecule, donor type, donor heavy atom, donor atom, acceptor molecule, acceptor atom, score
      L1  H     8    22       P1  5921  0.60
      L1  H    10    23       P1 10914  0.05
      P1  H  5925  5963       L1    17  0.39

> <Gold.PLP.Chemscore.Internal.Correction>
   9.000000E+99

#       Name:                CT1002167954
#       Creating user name   hitesit
#       Creation time:       Sun Apr 16 22:52:03 2023


#       File generated by GOLD software.
#

@<TRIPOS>MOLECULE
CT1002167954|ligand_prepared|mol2|1|dock7
    29    30     1
SMALL
NO_CHARGES


@<TRIPOS>ATOM
      1 C1         -14.4081   5.3671  16.2406 C.3            1 RES1               0.0000
      2 C2         -13.7916   4.2609  17.1209 C.ar           1 RES1               0.0000
      3 C3         -13.2380   6.0961  15.5865 C.2            1 RES1               0.0000
      4 C4         -15.3316   4.6618  15.2535 C.2            1 RES1               0.0000
      5 C5         -15.2494   6.3973  17.0295 C.3            1 RES1               0.0000
      6 C6         -12.5610   3.6990  16.7945 C.ar           1 RES1               0.0000
      7 C7         -14.4392   3.7947  18.2619 C.ar           1 RES1               0.0000
      8 N8         -13.0119   5.8669  14.2613 N.am           1 RES1               0.0000
      9 O9         -12.5008   6.8302  16.2329 O.2            1 RES1               0.0000
     10 N10        -15.0030   4.7042  13.9239 N.am           1 RES1               0.0000
     11 O11        -16.3320   4.0556  15.6170 O.2            1 RES1               0.0000
     12 C12        -15.6965   7.5894  16.1981 C.3            1 RES1               0.0000
     13 C13        -11.9967   2.7090  17.5818 C.ar           1 RES1               0.0000
     14 C14        -13.8733   2.8044  19.0477 C.ar           1 RES1               0.0000
     15 C15        -13.8686   5.2486  13.3863 C.2            1 RES1               0.0000
     16 C16        -12.6521   2.2614  18.7090 C.ar           1 RES1               0.0000
     17 O17        -13.6167   5.1994  12.1858 O.2            1 RES1               0.0000
     18 H18        -16.1374   5.8942  17.4316 H              1 RES1               0.0000
     19 H19        -14.6571   6.7611  17.8782 H              1 RES1               0.0000
     20 H20        -12.0316   4.0369  15.9098 H              1 RES1               0.0000
     21 H21        -15.4013   4.2066  18.5470 H              1 RES1               0.0000
     22 H22        -12.1238   6.1844  13.8862 H              1 RES1               0.0000
     23 H23        -15.6654   4.2918  13.2747 H              1 RES1               0.0000
     24 H24        -16.2828   8.2809  16.7995 H              1 RES1               0.0000
     25 H25        -14.8376   8.1280  15.8031 H              1 RES1               0.0000
     26 H26        -16.3092   7.2663  15.3590 H              1 RES1               0.0000
     27 H27        -11.0361   2.2840  17.3102 H              1 RES1               0.0000
     28 H28        -14.3930   2.4547  19.9336 H              1 RES1               0.0000
     29 H29        -12.2097   1.4861  19.3258 H              1 RES1               0.0000
@<TRIPOS>BOND
    1    1    2 1     
    2    1    3 1     
    3    1    4 1     
    4    1    5 1     
    5    2    6 ar    
    6    2    7 ar    
    7    3    8 1     
    8    3    9 2     
    9    4   10 1     
   10    4   11 2     
   11    5   12 1     
   12    5   18 1     
   13    5   19 1     
   14    6   13 ar    
   15    6   20 1     
   16    7   14 ar    
   17    7   21 1     
   18    8   15 1     
   19    8   22 1     
   20   10   15 1     
   21   10   23 1     
   22   12   24 1     
   23   12   25 1     
   24   12   26 1     
   25   13   16 ar    
   26   13   27 1     
   27   14   16 ar    
   28   14   28 1     
   29   15   17 2     
   30   16   29 1     
@<TRIPOS>SUBSTRUCTURE
      1 RES1           1
@<TRIPOS>SET
DONOR_HYDROGENS      STATIC     ATOMS    <user>   **** ""
2 22 23
ATOM$RED        STATIC     ATOMS    COLORGROUP SYSTEM
2 22 23
@<TRIPOS>COMMENT
> <Gold.Version>
2022.3.0

> <Gold.Id.Protein>
unknown|3mvj_clean|pdb

> <Gold.Protein.RotatedTorsions>
[ 11826 11799 11798 11795 ] final  115.16 input   60.01 | X-H torsion
[ 11911 11856 11855 11854 ] final   51.63 input   60.02 | X-H torsion
[ 10977 10959 10958 10956 ] final  164.30 input   60.00 | X-H torsion
[ 10969 10948 10949 10950 ] final -170.33 input   32.02 | X-H torsion
[ 10737 10719 10718 10716 ] final  155.79 input   60.01 | X-H torsion
[ 12076 12056 12057 12058 ] final   36.60 input   63.02 | X-H torsion
[ 10918 10911 10912 10913 ] final  111.17 input  -92.90 | X-H torsion
[ 6164 6140 6141 6142 ] final  -50.13 input   39.58 | X-H torsion
[ 6112 6105 6106 6107 ] final  121.98 input  -69.34 | X-H torsion
[ 5955 5918 5919 5920 ] final  152.27 input  125.26 | X-H torsion
[ 6027 5990 5991 5992 ] final -173.48 input  110.40 | X-H torsion
[ 6075 6056 6057 6058 ] final  -89.82 input  107.04 | X-H torsion
[ 11686 11631 11630 11629 ] final  -25.68 input   60.02 | X-H torsion
[ 11211 11201 11202 11203 ] final  -47.16 input   18.84 | X-H torsion
[ 11249 11237 11238 11239 ] final  -62.99 input  111.29 | X-H torsion
[ 11173 11153 11154 11155 ] final  102.27 input   30.50 | X-H torsion
[ 11292 11275 11276 11277 ] final  -44.21 input   58.53 | X-H torsion
[ 9451 9430 9431 9432 ] final  157.89 input  110.06 | X-H torsion
[ 11493 11474 11475 11476 ] final  159.62 input  115.95 | X-H torsion
[ 11385 11366 11367 11368 ] final  -83.27 input  117.79 | X-H torsion
[ 11568 11550 11549 11547 ] final  126.11 input   59.97 | X-H torsion
[ 9369 9348 9346 9343 ] final   72.55 input   60.02 | X-H torsion
[ 9511 9481 9482 9483 ] final -154.85 input   75.78 | X-H torsion
[ 15475 15466 15465 15463 ] final  116.26 input   60.00 | X-H torsion
[ 7755 7731 7730 7729 ] final  -93.25 input   60.02 | X-H torsion
[ 7846 7831 7832 7833 ] final  -88.68 input  113.97 | X-H torsion
[ 5737 5717 5718 5719 ] final  111.14 input  137.93 | X-H torsion
[ 5778 5767 5768 5769 ] final -149.43 input  116.46 | X-H torsion
[ 1839 1818 1819 1820 ] final  -63.44 input   43.70 | X-H torsion
[ 5782 5772 5771 5768 ] final  168.02 input   59.97 | X-H torsion
[ 15411 15403 15404 15405 ] final  -45.74 input  102.24 | X-H torsion
[ 1801 1791 1792 1793 ] final  -36.08 input  -10.55 | X-H torsion
[ 5632 5617 5618 5619 ] final  108.51 input   93.34 | X-H torsion
[ 7884 7874 7875 7876 ] final  143.63 input   68.03 | X-H torsion
[ 1845 1824 1822 1819 ] final -116.01 input   60.02 | X-H torsion
[ 1864 1854 1855 1856 ] final -167.86 input   57.50 | X-H torsion
[ 9363 9342 9343 9344 ] final  113.04 input   55.58 | X-H torsion
[ 9519 9492 9491 9489 ] final  151.32 input   60.02 | X-H torsion
[ 7745 7723 7724 7725 ] final -129.97 input   17.81 | X-H torsion
[ 1896 1884 1883 1880 ] final   44.30 input   60.01 | X-H torsion
[ 9325 9315 9316 9317 ] final  160.39 input  -36.21 | X-H torsion
[ 1892 1879 1880 1881 ] final -170.71 input   98.21 | X-H torsion
[ 9302 9286 9287 9288 ] final -178.30 input   37.00 | X-H torsion
[ 9263 9233 9234 9235 ] final   97.16 input   95.32 | X-H torsion
[ 3370 3362 3363 3364 ] final   24.60 input   97.92 | X-H torsion
[ 1947 1922 1923 1924 ] final   92.98 input  104.43 | X-H torsion
[ 12159 12148 12149 12150 ] final   90.48 input  116.04 | X-H torsion
[ 11673 11649 11648 11647 ] final -169.68 input   59.99 | X-H torsion
[ 12008 11984 11985 11986 ] final  -16.75 input   61.04 | X-H torsion
[ 11113 11093 11094 11095 ] final  -42.34 input   39.50 | X-H torsion
[ 7924 7916 7917 7918 ] final  -18.03 input   66.66 | X-H torsion
[ 8650 8630 8631 8632 ] final  166.48 input   75.31 | X-H torsion
[ 9566 9536 9537 9538 ] final -138.74 input  103.50 | X-H torsion
[ 16472 10886 10885 10884 ] final    3.18 input    0.00 | X-H torsion
[ 16475 11004 11003 11002 ] final    6.75 input    0.00 | X-H torsion
[ 16477 10914 10913 10912 ] final  -41.09 input    0.00 | X-H torsion
[ 16479 10951 10950 10949 ] final -157.79 input   -0.00 | X-H torsion
[ 16484 11987 11986 11985 ] final  -44.53 input    0.00 | X-H torsion
[ 16486 12059 12058 12057 ] final  137.56 input   -0.00 | X-H torsion
[ 16490 11046 11045 11044 ] final -138.00 input    0.00 | X-H torsion
[ 16500 6108 6107 6106 ] final -160.71 input    0.00 | X-H torsion
[ 16503 5921 5920 5919 ] final   17.74 input   -0.00 | X-H torsion
[ 16506 6059 6058 6057 ] final  -51.06 input    0.00 | X-H torsion
[ 16510 5858 5857 5856 ] final  -69.31 input    0.00 | X-H torsion
[ 16518 5993 5992 5991 ] final   99.39 input   -0.00 | X-H torsion
[ 16523 11156 11155 11154 ] final   35.40 input    0.00 | X-H torsion
[ 16528 11204 11203 11202 ] final  159.94 input    0.00 | X-H torsion
[ 16540 11096 11095 11094 ] final  175.35 input   -0.00 | X-H torsion
[ 16544 10768 10767 10766 ] final   53.80 input   -0.00 | X-H torsion
[ 16552 11240 11239 11238 ] final  -77.77 input    0.00 | X-H torsion
[ 16558 11278 11277 11276 ] final  -76.28 input   -0.00 | X-H torsion
[ 16562 11325 11324 11323 ] final  126.21 input   -0.00 | X-H torsion
[ 16566 9387 9386 9385 ] final  137.40 input   -0.00 | X-H torsion
[ 16570 9345 9344 9343 ] final  -52.46 input    0.00 | X-H torsion
[ 16579 5720 5719 5718 ] final   23.54 input    0.00 | X-H torsion
[ 16592 1821 1820 1819 ] final  145.68 input    0.00 | X-H torsion
[ 16594 7834 7833 7832 ] final  -70.89 input    0.00 | X-H torsion
[ 16600 1745 1744 1743 ] final  161.16 input    0.00 | X-H torsion
[ 16608 5620 5619 5618 ] final   10.63 input   -0.00 | X-H torsion
[ 16610 7788 7787 7786 ] final -128.53 input   -0.00 | X-H torsion
[ 16613 1794 1793 1792 ] final  170.98 input   -0.00 | X-H torsion
[ 16622 9318 9317 9316 ] final -151.06 input   -0.00 | X-H torsion
[ 16627 9433 9432 9431 ] final  168.19 input    0.00 | X-H torsion
[ 16631 7667 7666 7665 ] final   83.71 input   -0.00 | X-H torsion
[ 16635 7726 7725 7724 ] final -134.20 input    0.00 | X-H torsion
[ 16637 10539 10538 10537 ] final  -16.30 input   -0.00 | X-H torsion
[ 16643 1857 1856 1855 ] final  110.47 input    0.00 | X-H torsion
[ 16645 7565 7564 7563 ] final   97.73 input    0.00 | X-H torsion
[ 16647 9289 9288 9287 ] final -142.60 input    0.00 | X-H torsion
[ 16649 9236 9235 9234 ] final -132.90 input    0.00 | X-H torsion
[ 16655 3365 3364 3363 ] final  103.32 input    0.00 | X-H torsion

> <Gold.Protein.ActiveResidues>
 LEU49   GLY50   THR51   GLY52   SER53   PHE54   VAL57   LEU82   LYS83   GLN84  
 HIS87   GLU127  PHE129  SER130  LEU132  ARG133  ARG134  ILE135  GLY136  ARG137 
 ARG165  ASP166  LEU167  LYS168  PRO169  GLU170  ASN171  LEU172  LEU173  ASP184 
 GLY186  PHE187  TPO197  LEU198  CYS199  GLY200  THR201  PRO202  GLU203  TYR204 
 LEU205  ILE209  ILE210  VAL226  LEU227  TYR229  GLU230  ALA233  GLY234  TYR235 
 PRO236  PRO237  PHE238  PHE239  ALA240  ASP241  GLN242  PRO243  ILE244  GLN245 
 ILE246  TYR247  GLU248  LYS249  ILE250  VAL251  SER252  LYS254  ARG256  PHE257 
 PRO258  SER259  PHE327  ASP328  TYR330 

> <Gold.Protein.RotatedAtoms>
    1.5873  -14.2266   21.7726 H   0  0  0  0  0  0  0  0  0  0  0  0  # atno 1801 bound_to 1791
   -1.5640  -14.5383   23.7830 H   0  0  0  0  0  0  0  0  0  0  0  0  # atno 1839 bound_to 1818
   -0.1516  -13.4817   28.3722 H   0  0  0  0  0  0  0  0  0  0  0  0  # atno 1845 bound_to 1824
   -2.9274  -15.5588   26.2803 H   0  0  0  0  0  0  0  0  0  0  0  0  # atno 1864 bound_to 1854
   -4.5537  -16.0527   30.1446 H   0  0  0  0  0  0  0  0  0  0  0  0  # atno 1892 bound_to 1879
   -5.9287  -15.7867   31.4404 H   0  0  0  0  0  0  0  0  0  0  0  0  # atno 1896 bound_to 1884
   -4.8902  -19.2403   29.8517 H   0  0  0  0  0  0  0  0  0  0  0  0  # atno 1947 bound_to 1922
   -8.0475  -25.0987   35.8280 H   0  0  0  0  0  0  0  0  0  0  0  0  # atno 3370 bound_to 3362
   -3.9184   -9.9233   14.2501 H   0  0  0  0  0  0  0  0  0  0  0  0  # atno 5632 bound_to 5617
   -8.4782   -8.4363   14.9676 H   0  0  0  0  0  0  0  0  0  0  0  0  # atno 5737 bound_to 5717
   -6.8021   -5.9337   16.4012 H   0  0  0  0  0  0  0  0  0  0  0  0  # atno 5778 bound_to 5767
   -3.0430   -6.2837   14.0325 H   0  0  0  0  0  0  0  0  0  0  0  0  # atno 5782 bound_to 5772
   -9.1802   -2.4772   15.2629 H   0  0  0  0  0  0  0  0  0  0  0  0  # atno 5955 bound_to 5918
   -6.6436   -0.0746   15.2379 H   0  0  0  0  0  0  0  0  0  0  0  0  # atno 6027 bound_to 5990
   -6.9880    1.8218   12.2325 H   0  0  0  0  0  0  0  0  0  0  0  0  # atno 6075 bound_to 6056
   -9.7222    2.9258   11.8187 H   0  0  0  0  0  0  0  0  0  0  0  0  # atno 6112 bound_to 6105
  -12.1456    1.8242   11.4048 H   0  0  0  0  0  0  0  0  0  0  0  0  # atno 6164 bound_to 6140
  -16.1058  -13.0902   17.9916 H   0  0  0  0  0  0  0  0  0  0  0  0  # atno 7745 bound_to 7723
  -11.1414  -12.0360   24.0062 H   0  0  0  0  0  0  0  0  0  0  0  0  # atno 7755 bound_to 7731
  -12.7684  -11.9220   24.3013 H   0  0  0  0  0  0  0  0  0  0  0  0  # atno 7756 bound_to 7731
  -11.9814  -13.3618   24.5397 H   0  0  0  0  0  0  0  0  0  0  0  0  # atno 7757 bound_to 7731
  -10.5319   -9.8518   16.8188 H   0  0  0  0  0  0  0  0  0  0  0  0  # atno 7846 bound_to 7831
  -10.6240  -12.7303   18.3262 H   0  0  0  0  0  0  0  0  0  0  0  0  # atno 7884 bound_to 7874
   -9.3091  -13.5235   15.3353 H   0  0  0  0  0  0  0  0  0  0  0  0  # atno 7924 bound_to 7916
  -13.1431  -22.0078   23.8948 H   0  0  0  0  0  0  0  0  0  0  0  0  # atno 8650 bound_to 8630
  -21.2461  -21.0838   32.1132 H   0  0  0  0  0  0  0  0  0  0  0  0  # atno 9263 bound_to 9233
  -19.7098  -19.4382   30.0698 H   0  0  0  0  0  0  0  0  0  0  0  0  # atno 9302 bound_to 9286
  -18.3392  -17.5122   27.1892 H   0  0  0  0  0  0  0  0  0  0  0  0  # atno 9325 bound_to 9315
  -16.9820  -13.9708   24.7562 H   0  0  0  0  0  0  0  0  0  0  0  0  # atno 9363 bound_to 9342
  -15.1034  -13.8574   24.1746 H   0  0  0  0  0  0  0  0  0  0  0  0  # atno 9369 bound_to 9348
  -17.9057   -7.9231   26.2021 H   0  0  0  0  0  0  0  0  0  0  0  0  # atno 9451 bound_to 9430
  -19.4462   -8.6712   23.2809 H   0  0  0  0  0  0  0  0  0  0  0  0  # atno 9511 bound_to 9481
  -17.0051   -8.1501   17.2391 H   0  0  0  0  0  0  0  0  0  0  0  0  # atno 9519 bound_to 9492
  -20.7785  -11.6636   24.1046 H   0  0  0  0  0  0  0  0  0  0  0  0  # atno 9566 bound_to 9536
  -24.7334    1.5182   17.5709 H   0  0  0  0  0  0  0  0  0  0  0  0  # atno 10737 bound_to 10719
  -17.3865    1.6075   13.9257 H   0  0  0  0  0  0  0  0  0  0  0  0  # atno 10918 bound_to 10911
  -16.0628    1.1325   16.8009 H   0  0  0  0  0  0  0  0  0  0  0  0  # atno 10969 bound_to 10948
  -21.4026    5.6752   17.1088 H   0  0  0  0  0  0  0  0  0  0  0  0  # atno 10977 bound_to 10959
  -21.9939   -1.8473   22.3025 H   0  0  0  0  0  0  0  0  0  0  0  0  # atno 11113 bound_to 11093
  -21.2185   -0.8240   24.6031 H   0  0  0  0  0  0  0  0  0  0  0  0  # atno 11173 bound_to 11153
  -18.2896   -0.6129   27.6676 H   0  0  0  0  0  0  0  0  0  0  0  0  # atno 11211 bound_to 11201
  -17.6263    0.1029   30.5217 H   0  0  0  0  0  0  0  0  0  0  0  0  # atno 11249 bound_to 11237
  -17.1739   -1.4128   32.0702 H   0  0  0  0  0  0  0  0  0  0  0  0  # atno 11292 bound_to 11275
  -19.9125   -6.3210   33.3679 H   0  0  0  0  0  0  0  0  0  0  0  0  # atno 11385 bound_to 11366
  -21.2032   -3.2315   31.3322 H   0  0  0  0  0  0  0  0  0  0  0  0  # atno 11493 bound_to 11474
  -18.7433  -10.0693   32.3959 H   0  0  0  0  0  0  0  0  0  0  0  0  # atno 11568 bound_to 11550
  -24.4990    3.0215   27.5561 H   0  0  0  0  0  0  0  0  0  0  0  0  # atno 11673 bound_to 11649
  -25.5545    2.1161   28.4591 H   0  0  0  0  0  0  0  0  0  0  0  0  # atno 11674 bound_to 11649
  -24.0685    2.5156   29.0754 H   0  0  0  0  0  0  0  0  0  0  0  0  # atno 11675 bound_to 11649
   -7.9019    8.7437   25.5785 H   0  0  0  0  0  0  0  0  0  0  0  0  # atno 11686 bound_to 11631
   -8.6416    9.1916   26.9920 H   0  0  0  0  0  0  0  0  0  0  0  0  # atno 11687 bound_to 11631
   -9.2968    7.9883   26.0602 H   0  0  0  0  0  0  0  0  0  0  0  0  # atno 11688 bound_to 11631
  -13.6070   16.1964   23.5849 H   0  0  0  0  0  0  0  0  0  0  0  0  # atno 11826 bound_to 11799
  -17.7252   14.9644   25.2715 H   0  0  0  0  0  0  0  0  0  0  0  0  # atno 11911 bound_to 11856
  -18.1916   16.3523   24.4942 H   0  0  0  0  0  0  0  0  0  0  0  0  # atno 11912 bound_to 11856
  -16.8232   15.5512   24.0103 H   0  0  0  0  0  0  0  0  0  0  0  0  # atno 11913 bound_to 11856
  -28.2380    0.5094   19.1473 H   0  0  0  0  0  0  0  0  0  0  0  0  # atno 12008 bound_to 11984
  -28.2632    4.0029   16.8148 H   0  0  0  0  0  0  0  0  0  0  0  0  # atno 12076 bound_to 12056
  -24.2883    7.7781   12.9589 H   0  0  0  0  0  0  0  0  0  0  0  0  # atno 12159 bound_to 12148
    2.0884   -8.1862   17.2333 H   0  0  0  0  0  0  0  0  0  0  0  0  # atno 15411 bound_to 15403
   -2.1126  -10.7680   21.9467 H   0  0  0  0  0  0  0  0  0  0  0  0  # atno 15475 bound_to 15466
  -12.6942   16.8449   22.4042 LP  0  0  0  0  0  0  0  0  0  0  0  0  # atno 16466 bound_to 11799
  -12.5881   15.2502   22.7397 LP  0  0  0  0  0  0  0  0  0  0  0  0  # atno 16467 bound_to 11799
  -22.3575    4.9866   18.2324 LP  0  0  0  0  0  0  0  0  0  0  0  0  # atno 16468 bound_to 10959
  -22.2402    4.3290   16.7422 LP  0  0  0  0  0  0  0  0  0  0  0  0  # atno 16469 bound_to 10959
  -18.1558    3.7185   14.2562 LP  0  0  0  0  0  0  0  0  0  0  0  0  # atno 16472 bound_to 10886
  -16.5496    3.2187   14.6690 LP  0  0  0  0  0  0  0  0  0  0  0  0  # atno 16473 bound_to 10886
  -17.5736    0.3531   16.3732 LP  0  0  0  0  0  0  0  0  0  0  0  0  # atno 16474 bound_to 10948
  -19.7963   -0.1732   21.0181 LP  0  0  0  0  0  0  0  0  0  0  0  0  # atno 16475 bound_to 11004
  -21.5001   -0.2539   21.3193 LP  0  0  0  0  0  0  0  0  0  0  0  0  # atno 16476 bound_to 11004
  -13.7944    0.7010   16.8983 LP  0  0  0  0  0  0  0  0  0  0  0  0  # atno 16477 bound_to 10914
  -14.7165    1.6143   18.0453 LP  0  0  0  0  0  0  0  0  0  0  0  0  # atno 16478 bound_to 10914
  -20.0955   -1.0449   17.9618 LP  0  0  0  0  0  0  0  0  0  0  0  0  # atno 16479 bound_to 10951
  -18.9879   -0.3601   16.8197 LP  0  0  0  0  0  0  0  0  0  0  0  0  # atno 16480 bound_to 10951
  -23.1394    1.7924   17.7484 LP  0  0  0  0  0  0  0  0  0  0  0  0  # atno 16482 bound_to 10719
  -23.9767    1.0339   18.9275 LP  0  0  0  0  0  0  0  0  0  0  0  0  # atno 16483 bound_to 10719
  -25.8318    1.8551   18.6866 LP  0  0  0  0  0  0  0  0  0  0  0  0  # atno 16484 bound_to 11987
  -26.1427    1.1494   17.1357 LP  0  0  0  0  0  0  0  0  0  0  0  0  # atno 16485 bound_to 11987
  -26.4236    6.1952   15.6080 LP  0  0  0  0  0  0  0  0  0  0  0  0  # atno 16486 bound_to 12059
  -27.8146    5.4158   14.9316 LP  0  0  0  0  0  0  0  0  0  0  0  0  # atno 16487 bound_to 12059
  -24.1593   -0.2758   23.0754 LP  0  0  0  0  0  0  0  0  0  0  0  0  # atno 16490 bound_to 11046
  -25.2258   -0.8401   21.8328 LP  0  0  0  0  0  0  0  0  0  0  0  0  # atno 16491 bound_to 11046
  -27.7600    2.4058   17.3121 LP  0  0  0  0  0  0  0  0  0  0  0  0  # atno 16492 bound_to 12056
  -17.4457   -0.0737   14.4106 LP  0  0  0  0  0  0  0  0  0  0  0  0  # atno 16493 bound_to 10911
  -13.5755    0.4463   13.2732 LP  0  0  0  0  0  0  0  0  0  0  0  0  # atno 16500 bound_to 6108
  -12.8024    1.3197   14.5536 LP  0  0  0  0  0  0  0  0  0  0  0  0  # atno 16501 bound_to 6108
  -13.2560    3.0305   12.0110 LP  0  0  0  0  0  0  0  0  0  0  0  0  # atno 16502 bound_to 6140
   -9.0060    2.0723   16.1560 LP  0  0  0  0  0  0  0  0  0  0  0  0  # atno 16503 bound_to 5921
   -8.1152    2.5485   14.7490 LP  0  0  0  0  0  0  0  0  0  0  0  0  # atno 16504 bound_to 5921
   -9.9512    1.4212   12.6838 LP  0  0  0  0  0  0  0  0  0  0  0  0  # atno 16505 bound_to 6105
   -9.2033    4.7441   10.9954 LP  0  0  0  0  0  0  0  0  0  0  0  0  # atno 16506 bound_to 6059
  -10.8722    4.2911   10.8976 LP  0  0  0  0  0  0  0  0  0  0  0  0  # atno 16507 bound_to 6059
   -9.6804    0.3940   12.7674 LP  0  0  0  0  0  0  0  0  0  0  0  0  # atno 16510 bound_to 5858
  -10.8353    0.3786   14.0581 LP  0  0  0  0  0  0  0  0  0  0  0  0  # atno 16511 bound_to 5858
   -9.2104   -1.2791   13.9928 LP  0  0  0  0  0  0  0  0  0  0  0  0  # atno 16516 bound_to 5918
   -7.9713    0.1533   14.1156 LP  0  0  0  0  0  0  0  0  0  0  0  0  # atno 16517 bound_to 5990
   -6.1592    3.6191   11.7167 LP  0  0  0  0  0  0  0  0  0  0  0  0  # atno 16518 bound_to 5993
   -7.2652    3.9571   13.0061 LP  0  0  0  0  0  0  0  0  0  0  0  0  # atno 16519 bound_to 5993
   -8.0837    0.4856   12.0197 LP  0  0  0  0  0  0  0  0  0  0  0  0  # atno 16520 bound_to 6056
  -21.6762    0.3390   26.8812 LP  0  0  0  0  0  0  0  0  0  0  0  0  # atno 16523 bound_to 11156
  -20.6097    1.3931   27.7480 LP  0  0  0  0  0  0  0  0  0  0  0  0  # atno 16524 bound_to 11156
  -19.9179   -1.1004   28.0977 LP  0  0  0  0  0  0  0  0  0  0  0  0  # atno 16525 bound_to 11201
  -15.8474   -0.5930   29.9968 LP  0  0  0  0  0  0  0  0  0  0  0  0  # atno 16528 bound_to 11204
  -17.0365   -1.3213   28.9694 LP  0  0  0  0  0  0  0  0  0  0  0  0  # atno 16529 bound_to 11204
  -18.1955    1.2961   31.6649 LP  0  0  0  0  0  0  0  0  0  0  0  0  # atno 16530 bound_to 11237
  -21.7725   -1.9385   25.8341 LP  0  0  0  0  0  0  0  0  0  0  0  0  # atno 16533 bound_to 11153
  -19.8066   -3.4583   25.0227 LP  0  0  0  0  0  0  0  0  0  0  0  0  # atno 16540 bound_to 11096
  -21.1204   -4.2709   24.2394 LP  0  0  0  0  0  0  0  0  0  0  0  0  # atno 16541 bound_to 11096
  -16.1502   -1.9551   15.1812 LP  0  0  0  0  0  0  0  0  0  0  0  0  # atno 16544 bound_to 10768
  -16.8527   -1.4157   13.6928 LP  0  0  0  0  0  0  0  0  0  0  0  0  # atno 16545 bound_to 10768
  -14.7506   -1.8885   31.7131 LP  0  0  0  0  0  0  0  0  0  0  0  0  # atno 16552 bound_to 11240
  -14.4977   -1.5779   33.3982 LP  0  0  0  0  0  0  0  0  0  0  0  0  # atno 16553 bound_to 11240
  -17.3292   -0.6354   33.6278 LP  0  0  0  0  0  0  0  0  0  0  0  0  # atno 16554 bound_to 11275
  -19.9486   -3.3087   33.0483 LP  0  0  0  0  0  0  0  0  0  0  0  0  # atno 16558 bound_to 11278
  -19.1872   -3.4167   31.4963 LP  0  0  0  0  0  0  0  0  0  0  0  0  # atno 16559 bound_to 11278
  -19.0810   -9.1894   25.9266 LP  0  0  0  0  0  0  0  0  0  0  0  0  # atno 16561 bound_to 9430
  -21.5484   -6.9214   32.1646 LP  0  0  0  0  0  0  0  0  0  0  0  0  # atno 16562 bound_to 11325
  -20.8503   -5.6264   31.2505 LP  0  0  0  0  0  0  0  0  0  0  0  0  # atno 16563 bound_to 11325
  -22.8687   -3.6483   31.6824 LP  0  0  0  0  0  0  0  0  0  0  0  0  # atno 16564 bound_to 11474
  -19.5847   -5.4068   34.8111 LP  0  0  0  0  0  0  0  0  0  0  0  0  # atno 16565 bound_to 11366
  -21.0772   -7.8975   26.6387 LP  0  0  0  0  0  0  0  0  0  0  0  0  # atno 16566 bound_to 9387
  -21.1982   -9.5950   26.9607 LP  0  0  0  0  0  0  0  0  0  0  0  0  # atno 16567 bound_to 9387
  -18.9622  -10.4751   30.8353 LP  0  0  0  0  0  0  0  0  0  0  0  0  # atno 16568 bound_to 11550
  -19.4640  -11.4794   32.0212 LP  0  0  0  0  0  0  0  0  0  0  0  0  # atno 16569 bound_to 11550
  -18.4148  -11.3637   24.3956 LP  0  0  0  0  0  0  0  0  0  0  0  0  # atno 16570 bound_to 9345
  -19.4541  -11.4554   25.7782 LP  0  0  0  0  0  0  0  0  0  0  0  0  # atno 16571 bound_to 9345
  -14.2088  -13.3548   25.4374 LP  0  0  0  0  0  0  0  0  0  0  0  0  # atno 16572 bound_to 9348
  -13.8761  -12.8169   23.9319 LP  0  0  0  0  0  0  0  0  0  0  0  0  # atno 16573 bound_to 9348
  -19.7107   -9.8577   24.5390 LP  0  0  0  0  0  0  0  0  0  0  0  0  # atno 16574 bound_to 9481
   -9.1323   -3.9939   16.3059 LP  0  0  0  0  0  0  0  0  0  0  0  0  # atno 16579 bound_to 5720
   -7.8072   -3.4380   15.3389 LP  0  0  0  0  0  0  0  0  0  0  0  0  # atno 16580 bound_to 5720
   -1.3104  -10.1419   20.6771 LP  0  0  0  0  0  0  0  0  0  0  0  0  # atno 16587 bound_to 15466
   -1.7841   -9.1750   21.9048 LP  0  0  0  0  0  0  0  0  0  0  0  0  # atno 16588 bound_to 15466
  -11.4341  -10.3267   18.2477 LP  0  0  0  0  0  0  0  0  0  0  0  0  # atno 16591 bound_to 7831
   -4.0688  -13.9431   26.4926 LP  0  0  0  0  0  0  0  0  0  0  0  0  # atno 16592 bound_to 1821
   -2.6077  -13.0133   26.5160 LP  0  0  0  0  0  0  0  0  0  0  0  0  # atno 16593 bound_to 1821
   -7.2884  -12.5706   17.3338 LP  0  0  0  0  0  0  0  0  0  0  0  0  # atno 16594 bound_to 7834
   -7.8506  -13.5363   18.6572 LP  0  0  0  0  0  0  0  0  0  0  0  0  # atno 16595 bound_to 7834
   -9.2619   -7.2716   13.9134 LP  0  0  0  0  0  0  0  0  0  0  0  0  # atno 16596 bound_to 5717
   -7.0673   -6.0309   14.6739 LP  0  0  0  0  0  0  0  0  0  0  0  0  # atno 16597 bound_to 5767
   -1.1360  -13.1798   19.9209 LP  0  0  0  0  0  0  0  0  0  0  0  0  # atno 16600 bound_to 1745
   -0.0597  -12.5741   18.7066 LP  0  0  0  0  0  0  0  0  0  0  0  0  # atno 16601 bound_to 1745
   -0.3321  -13.5018   24.4676 LP  0  0  0  0  0  0  0  0  0  0  0  0  # atno 16602 bound_to 1818
   -4.3723   -5.6794   13.3142 LP  0  0  0  0  0  0  0  0  0  0  0  0  # atno 16603 bound_to 5772
   -4.5025   -6.9215   14.3662 LP  0  0  0  0  0  0  0  0  0  0  0  0  # atno 16604 bound_to 5772
    0.4557   -8.1547   17.8571 LP  0  0  0  0  0  0  0  0  0  0  0  0  # atno 16605 bound_to 15403
    0.5876  -14.1537   20.3372 LP  0  0  0  0  0  0  0  0  0  0  0  0  # atno 16606 bound_to 1791
   -4.3309  -10.3151   12.5935 LP  0  0  0  0  0  0  0  0  0  0  0  0  # atno 16607 bound_to 5617
   -5.2571   -7.9234   13.4146 LP  0  0  0  0  0  0  0  0  0  0  0  0  # atno 16608 bound_to 5620
   -6.8145   -7.2426   13.0814 LP  0  0  0  0  0  0  0  0  0  0  0  0  # atno 16609 bound_to 5620
   -9.5236  -11.1482   15.5291 LP  0  0  0  0  0  0  0  0  0  0  0  0  # atno 16610 bound_to 7788
   -9.8092   -9.5570   14.9072 LP  0  0  0  0  0  0  0  0  0  0  0  0  # atno 16611 bound_to 7788
   -9.8413  -12.3312   16.8195 LP  0  0  0  0  0  0  0  0  0  0  0  0  # atno 16612 bound_to 7874
    0.4150  -16.3167   24.3322 LP  0  0  0  0  0  0  0  0  0  0  0  0  # atno 16613 bound_to 1794
    0.5427  -16.2471   22.6062 LP  0  0  0  0  0  0  0  0  0  0  0  0  # atno 16614 bound_to 1794
   -0.0103  -15.0400   28.8193 LP  0  0  0  0  0  0  0  0  0  0  0  0  # atno 16615 bound_to 1824
   -1.3885  -14.5092   28.1227 LP  0  0  0  0  0  0  0  0  0  0  0  0  # atno 16616 bound_to 1824
   -1.9210  -16.5017   27.3657 LP  0  0  0  0  0  0  0  0  0  0  0  0  # atno 16617 bound_to 1854
  -15.6862  -13.8416   27.7932 LP  0  0  0  0  0  0  0  0  0  0  0  0  # atno 16622 bound_to 9318
  -15.4438  -15.5285   27.4844 LP  0  0  0  0  0  0  0  0  0  0  0  0  # atno 16623 bound_to 9318
  -17.5813  -14.0058   26.3996 LP  0  0  0  0  0  0  0  0  0  0  0  0  # atno 16624 bound_to 9342
  -21.5103   -8.3056   22.3177 LP  0  0  0  0  0  0  0  0  0  0  0  0  # atno 16627 bound_to 9433
  -21.4377   -6.8947   23.3197 LP  0  0  0  0  0  0  0  0  0  0  0  0  # atno 16628 bound_to 9433
  -16.1350   -7.4613   18.4294 LP  0  0  0  0  0  0  0  0  0  0  0  0  # atno 16629 bound_to 9492
  -17.6226   -6.8930   18.0679 LP  0  0  0  0  0  0  0  0  0  0  0  0  # atno 16630 bound_to 9492
  -16.9478  -13.0482   20.3353 LP  0  0  0  0  0  0  0  0  0  0  0  0  # atno 16631 bound_to 7667
  -17.6813  -12.1481   19.0500 LP  0  0  0  0  0  0  0  0  0  0  0  0  # atno 16632 bound_to 7667
  -14.4361  -13.6144   18.1106 LP  0  0  0  0  0  0  0  0  0  0  0  0  # atno 16634 bound_to 7723
  -12.0427  -12.2065   16.6014 LP  0  0  0  0  0  0  0  0  0  0  0  0  # atno 16635 bound_to 7726
  -13.5909  -12.9101   16.2729 LP  0  0  0  0  0  0  0  0  0  0  0  0  # atno 16636 bound_to 7726
  -21.1428   -5.5637   16.7977 LP  0  0  0  0  0  0  0  0  0  0  0  0  # atno 16637 bound_to 10539
  -19.6556   -6.1673   16.1466 LP  0  0  0  0  0  0  0  0  0  0  0  0  # atno 16638 bound_to 10539
   -5.1924  -15.3211   32.8145 LP  0  0  0  0  0  0  0  0  0  0  0  0  # atno 16639 bound_to 1884
   -6.7170  -15.9044   32.8588 LP  0  0  0  0  0  0  0  0  0  0  0  0  # atno 16640 bound_to 1884
  -16.8807  -16.7879   27.8361 LP  0  0  0  0  0  0  0  0  0  0  0  0  # atno 16641 bound_to 9315
   -4.5779  -17.6741   29.4892 LP  0  0  0  0  0  0  0  0  0  0  0  0  # atno 16642 bound_to 1879
   -1.8891  -16.2071   30.3716 LP  0  0  0  0  0  0  0  0  0  0  0  0  # atno 16643 bound_to 1857
   -1.7373  -17.4974   29.2261 LP  0  0  0  0  0  0  0  0  0  0  0  0  # atno 16644 bound_to 1857
  -17.3031  -18.1658   23.4059 LP  0  0  0  0  0  0  0  0  0  0  0  0  # atno 16645 bound_to 7565
  -18.4414  -16.9072   23.0592 LP  0  0  0  0  0  0  0  0  0  0  0  0  # atno 16646 bound_to 7565
  -19.7622  -17.3524   25.9169 LP  0  0  0  0  0  0  0  0  0  0  0  0  # atno 16647 bound_to 9289
  -20.5808  -17.5783   27.4264 LP  0  0  0  0  0  0  0  0  0  0  0  0  # atno 16648 bound_to 9289
  -18.1190  -18.3266   31.2566 LP  0  0  0  0  0  0  0  0  0  0  0  0  # atno 16649 bound_to 9236
  -18.7269  -19.7887   31.9584 LP  0  0  0  0  0  0  0  0  0  0  0  0  # atno 16650 bound_to 9236
  -20.5492  -18.4564   28.8920 LP  0  0  0  0  0  0  0  0  0  0  0  0  # atno 16653 bound_to 9286
  -21.6803  -21.1535   30.4201 LP  0  0  0  0  0  0  0  0  0  0  0  0  # atno 16654 bound_to 9233
  -11.0635  -23.6954   33.2687 LP  0  0  0  0  0  0  0  0  0  0  0  0  # atno 16655 bound_to 3365
  -11.8109  -22.8674   34.5938 LP  0  0  0  0  0  0  0  0  0  0  0  0  # atno 16656 bound_to 3365
   -7.4737  -23.8250   36.8784 LP  0  0  0  0  0  0  0  0  0  0  0  0  # atno 16657 bound_to 3362
   -4.0871  -19.3506   31.4056 LP  0  0  0  0  0  0  0  0  0  0  0  0  # atno 16658 bound_to 1922

> <Gold.Score>
     Fitness  S(hb_ext) S(vdw_ext)  S(hb_int)    S(int)      intcor
     30.32       0.00      22.66       0.00      -0.83      -0.76

> <Gold.Goldscore.Fitness>
30.3213

> <Gold.Goldscore.Internal.Vdw>
-1.1193

> <Gold.Goldscore.Internal.Torsion>
-0.4707

> <Gold.Goldscore.External.Vdw>
22.6558

> <Gold.Goldscore.Internal.HBond>
0.0000

> <Gold.Goldscore.External.HBond>
0.0000

> <Gold.Goldscore.Internal.Correction>
-0.7595

> <Gold.Goldscore.Internal.Vdw.Weighted>
-1.1193

> <Gold.Goldscore.Internal.Torsion.Weighted>
-0.4707

> <Gold.Goldscore.External.Vdw.Weighted>
31.1517

> <Gold.Goldscore.Internal.HBond.Weighted>
0.0000

> <Gold.Goldscore.External.HBond.Weighted>
0.0000

> <Gold.Goldscore.Internal.Correction.Weighted>
-0.7595

> <Gold.Rescore>
     Score     S(PLP)   S(hbond)     S(cho)   S(metal)  DE(clash)   DE(tors)     intcor
     25.63     -25.61       0.52       0.00       0.00       0.00       0.78       ----

> <Gold.PLP.Fitness>
25.6271

> <Gold.PLP.PLP>
-25.6142

> <Gold.PLP.part.hbond>
-1.8295

> <Gold.PLP.part.metal>
0.0000

> <Gold.PLP.part.buried>
-1.9660

> <Gold.PLP.part.nonpolar>
-26.1972

> <Gold.PLP.part.repulsive>
2.9638

> <Gold.PLP.ligand.clash>
0.0000

> <Gold.PLP.ligand.torsion>
0.7771

> <Gold.PLP.Chemscore.Hbond>
0.5223

> <Gold.PLP.Chemscore.CHOScore>
0.0000

> <Gold.PLP.Chemscore.Metal>
0.0000

> <Gold.PLP.Chemscore.Internal.Correction>
   9.000000E+99

#       Name:                CT1002167954
#       Creating user name   hitesit
#       Creation time:       Sun Apr 16 22:52:06 2023


#       File generated by GOLD software.
#

@<TRIPOS>MOLECULE
CT1002167954|ligand_prepared|mol2|1|dock8
    29    30     1
SMALL
NO_CHARGES


@<TRIPOS>ATOM
      1 C1         -13.7191   4.9279  16.9633 C.3            1 RES1               0.0000
      2 C2         -13.6106   3.7831  17.9912 C.ar           1 RES1               0.0000
      3 C3         -14.4953   4.3655  15.7761 C.2            1 RES1               0.0000
      4 C4         -14.4215   6.0774  17.6775 C.2            1 RES1               0.0000
      5 C5         -12.3523   5.4442  16.4565 C.3            1 RES1               0.0000
      6 C6         -12.6849   2.7589  17.8160 C.ar           1 RES1               0.0000
      7 C7         -14.4261   3.7392  19.1189 C.ar           1 RES1               0.0000
      8 N8         -15.7864   4.7740  15.6146 N.am           1 RES1               0.0000
      9 O9         -13.9948   3.5458  15.0159 O.2            1 RES1               0.0000
     10 N10        -15.6638   6.4465  17.2325 N.am           1 RES1               0.0000
     11 O11        -13.9174   6.6558  18.6322 O.2            1 RES1               0.0000
     12 C12        -12.4457   6.7183  15.6318 C.3            1 RES1               0.0000
     13 C13        -12.5762   1.7296  18.7363 C.ar           1 RES1               0.0000
     14 C14        -14.3159   2.7087  20.0379 C.ar           1 RES1               0.0000
     15 C15        -16.3911   5.8267  16.2531 C.2            1 RES1               0.0000
     16 C16        -13.3912   1.7040  19.8480 C.ar           1 RES1               0.0000
     17 O17        -17.5249   6.1835  15.9458 O.2            1 RES1               0.0000
     18 H18        -11.7025   5.6297  17.3206 H              1 RES1               0.0000
     19 H19        -11.8837   4.6623  15.8463 H              1 RES1               0.0000
     20 H20        -12.0367   2.7609  16.9460 H              1 RES1               0.0000
     21 H21        -15.1614   4.5184  19.2883 H              1 RES1               0.0000
     22 H22        -16.3548   4.2480  14.9584 H              1 RES1               0.0000
     23 H23        -16.0855   7.2585  17.6719 H              1 RES1               0.0000
     24 H24        -11.4594   7.0371  15.3014 H              1 RES1               0.0000
     25 H25        -13.0645   6.5629  14.7505 H              1 RES1               0.0000
     26 H26        -12.8844   7.5246  16.2161 H              1 RES1               0.0000
     27 H27        -11.8477   0.9405  18.5816 H              1 RES1               0.0000
     28 H28        -14.9598   2.6923  20.9110 H              1 RES1               0.0000
     29 H29        -13.3056   0.8977  20.5690 H              1 RES1               0.0000
@<TRIPOS>BOND
    1    1    2 1     
    2    1    3 1     
    3    1    4 1     
    4    1    5 1     
    5    2    6 ar    
    6    2    7 ar    
    7    3    8 1     
    8    3    9 2     
    9    4   10 1     
   10    4   11 2     
   11    5   12 1     
   12    5   18 1     
   13    5   19 1     
   14    6   13 ar    
   15    6   20 1     
   16    7   14 ar    
   17    7   21 1     
   18    8   15 1     
   19    8   22 1     
   20   10   15 1     
   21   10   23 1     
   22   12   24 1     
   23   12   25 1     
   24   12   26 1     
   25   13   16 ar    
   26   13   27 1     
   27   14   16 ar    
   28   14   28 1     
   29   15   17 2     
   30   16   29 1     
@<TRIPOS>SUBSTRUCTURE
      1 RES1           1
@<TRIPOS>SET
DONOR_HYDROGENS      STATIC     ATOMS    <user>   **** ""
2 22 23
ATOM$RED        STATIC     ATOMS    COLORGROUP SYSTEM
2 22 23
@<TRIPOS>COMMENT
> <Gold.Version>
2022.3.0

> <Gold.Id.Protein>
unknown|3mvj_clean|pdb

> <Gold.Protein.RotatedTorsions>
[ 11826 11799 11798 11795 ] final   33.29 input   60.01 | X-H torsion
[ 11911 11856 11855 11854 ] final -179.04 input   60.02 | X-H torsion
[ 10977 10959 10958 10956 ] final  -53.91 input   60.00 | X-H torsion
[ 10969 10948 10949 10950 ] final -101.57 input   32.02 | X-H torsion
[ 10737 10719 10718 10716 ] final   15.01 input   60.01 | X-H torsion
[ 12076 12056 12057 12058 ] final   44.74 input   63.02 | X-H torsion
[ 10918 10911 10912 10913 ] final  -25.40 input  -92.90 | X-H torsion
[ 6164 6140 6141 6142 ] final  146.45 input   39.58 | X-H torsion
[ 6112 6105 6106 6107 ] final   44.57 input  -69.34 | X-H torsion
[ 5955 5918 5919 5920 ] final  147.76 input  125.26 | X-H torsion
[ 6027 5990 5991 5992 ] final  104.77 input  110.40 | X-H torsion
[ 6075 6056 6057 6058 ] final  -44.83 input  107.04 | X-H torsion
[ 11686 11631 11630 11629 ] final   99.40 input   60.02 | X-H torsion
[ 11211 11201 11202 11203 ] final  -28.97 input   18.84 | X-H torsion
[ 11249 11237 11238 11239 ] final  -82.77 input  111.29 | X-H torsion
[ 11173 11153 11154 11155 ] final   60.03 input   30.50 | X-H torsion
[ 11292 11275 11276 11277 ] final -153.81 input   58.53 | X-H torsion
[ 9451 9430 9431 9432 ] final -155.72 input  110.06 | X-H torsion
[ 11493 11474 11475 11476 ] final -132.96 input  115.95 | X-H torsion
[ 11385 11366 11367 11368 ] final   34.82 input  117.79 | X-H torsion
[ 11568 11550 11549 11547 ] final  -13.15 input   59.97 | X-H torsion
[ 9369 9348 9346 9343 ] final  109.23 input   60.02 | X-H torsion
[ 9511 9481 9482 9483 ] final   44.85 input   75.78 | X-H torsion
[ 15475 15466 15465 15463 ] final  100.78 input   60.00 | X-H torsion
[ 7755 7731 7730 7729 ] final  -14.51 input   60.02 | X-H torsion
[ 7846 7831 7832 7833 ] final   98.50 input  113.97 | X-H torsion
[ 5737 5717 5718 5719 ] final  -49.10 input  137.93 | X-H torsion
[ 5778 5767 5768 5769 ] final  126.30 input  116.46 | X-H torsion
[ 1839 1818 1819 1820 ] final  -39.27 input   43.70 | X-H torsion
[ 5782 5772 5771 5768 ] final  -15.97 input   59.97 | X-H torsion
[ 15411 15403 15404 15405 ] final  -63.70 input  102.24 | X-H torsion
[ 1801 1791 1792 1793 ] final  -33.05 input  -10.55 | X-H torsion
[ 5632 5617 5618 5619 ] final  149.59 input   93.34 | X-H torsion
[ 7884 7874 7875 7876 ] final  127.10 input   68.03 | X-H torsion
[ 1845 1824 1822 1819 ] final  -83.42 input   60.02 | X-H torsion
[ 1864 1854 1855 1856 ] final  153.12 input   57.50 | X-H torsion
[ 9363 9342 9343 9344 ] final   69.65 input   55.58 | X-H torsion
[ 9519 9492 9491 9489 ] final -149.51 input   60.02 | X-H torsion
[ 7745 7723 7724 7725 ] final -120.00 input   17.81 | X-H torsion
[ 1896 1884 1883 1880 ] final   52.98 input   60.01 | X-H torsion
[ 9325 9315 9316 9317 ] final  156.45 input  -36.21 | X-H torsion
[ 1892 1879 1880 1881 ] final  134.78 input   98.21 | X-H torsion
[ 9302 9286 9287 9288 ] final  -65.65 input   37.00 | X-H torsion
[ 9263 9233 9234 9235 ] final  -36.86 input   95.32 | X-H torsion
[ 3370 3362 3363 3364 ] final   26.21 input   97.92 | X-H torsion
[ 1947 1922 1923 1924 ] final  -91.04 input  104.43 | X-H torsion
[ 12159 12148 12149 12150 ] final   19.01 input  116.04 | X-H torsion
[ 11673 11649 11648 11647 ] final   52.96 input   59.99 | X-H torsion
[ 12008 11984 11985 11986 ] final  135.57 input   61.04 | X-H torsion
[ 11113 11093 11094 11095 ] final    2.93 input   39.50 | X-H torsion
[ 7924 7916 7917 7918 ] final  -88.03 input   66.66 | X-H torsion
[ 8650 8630 8631 8632 ] final   52.81 input   75.31 | X-H torsion
[ 9566 9536 9537 9538 ] final -117.28 input  103.50 | X-H torsion
[ 16472 10886 10885 10884 ] final  115.31 input    0.00 | X-H torsion
[ 16475 11004 11003 11002 ] final  -92.81 input    0.00 | X-H torsion
[ 16477 10914 10913 10912 ] final   -4.22 input    0.00 | X-H torsion
[ 16479 10951 10950 10949 ] final    7.03 input   -0.00 | X-H torsion
[ 16484 11987 11986 11985 ] final   82.97 input    0.00 | X-H torsion
[ 16486 12059 12058 12057 ] final -158.91 input   -0.00 | X-H torsion
[ 16490 11046 11045 11044 ] final -149.06 input    0.00 | X-H torsion
[ 16500 6108 6107 6106 ] final  123.75 input    0.00 | X-H torsion
[ 16503 5921 5920 5919 ] final    7.03 input   -0.00 | X-H torsion
[ 16506 6059 6058 6057 ] final    8.44 input    0.00 | X-H torsion
[ 16510 5858 5857 5856 ] final  -16.87 input    0.00 | X-H torsion
[ 16518 5993 5992 5991 ] final   84.37 input   -0.00 | X-H torsion
[ 16523 11156 11155 11154 ] final   60.47 input    0.00 | X-H torsion
[ 16528 11204 11203 11202 ] final   -1.41 input    0.00 | X-H torsion
[ 16540 11096 11095 11094 ] final  -26.72 input   -0.00 | X-H torsion
[ 16544 10768 10767 10766 ] final    4.22 input   -0.00 | X-H torsion
[ 16552 11240 11239 11238 ] final   63.28 input    0.00 | X-H torsion
[ 16558 11278 11277 11276 ] final -165.94 input   -0.00 | X-H torsion
[ 16562 11325 11324 11323 ] final  142.03 input   -0.00 | X-H torsion
[ 16566 9387 9386 9385 ] final   85.78 input   -0.00 | X-H torsion
[ 16570 9345 9344 9343 ] final  157.50 input    0.00 | X-H torsion
[ 16579 5720 5719 5718 ] final  143.44 input    0.00 | X-H torsion
[ 16592 1821 1820 1819 ] final  -42.19 input    0.00 | X-H torsion
[ 16594 7834 7833 7832 ] final   73.12 input    0.00 | X-H torsion
[ 16600 1745 1744 1743 ] final  -25.31 input    0.00 | X-H torsion
[ 16608 5620 5619 5618 ] final  -19.69 input   -0.00 | X-H torsion
[ 16610 7788 7787 7786 ] final  156.09 input   -0.00 | X-H torsion
[ 16613 1794 1793 1792 ] final -167.34 input   -0.00 | X-H torsion
[ 16622 9318 9317 9316 ] final    2.81 input   -0.00 | X-H torsion
[ 16627 9433 9432 9431 ] final   21.09 input    0.00 | X-H torsion
[ 16631 7667 7666 7665 ] final   60.47 input   -0.00 | X-H torsion
[ 16635 7726 7725 7724 ] final  156.09 input    0.00 | X-H torsion
[ 16637 10539 10538 10537 ] final   75.94 input   -0.00 | X-H torsion
[ 16643 1857 1856 1855 ] final   90.00 input    0.00 | X-H torsion
[ 16645 7565 7564 7563 ] final  -78.75 input    0.00 | X-H torsion
[ 16647 9289 9288 9287 ] final   23.91 input    0.00 | X-H torsion
[ 16649 9236 9235 9234 ] final  -92.81 input    0.00 | X-H torsion
[ 16655 3365 3364 3363 ] final  -12.66 input    0.00 | X-H torsion

> <Gold.Protein.ActiveResidues>
 LEU49   GLY50   THR51   GLY52   SER53   PHE54   VAL57   LEU82   LYS83   GLN84  
 HIS87   GLU127  PHE129  SER130  LEU132  ARG133  ARG134  ILE135  GLY136  ARG137 
 ARG165  ASP166  LEU167  LYS168  PRO169  GLU170  ASN171  LEU172  LEU173  ASP184 
 GLY186  PHE187  TPO197  LEU198  CYS199  GLY200  THR201  PRO202  GLU203  TYR204 
 LEU205  ILE209  ILE210  VAL226  LEU227  TYR229  GLU230  ALA233  GLY234  TYR235 
 PRO236  PRO237  PHE238  PHE239  ALA240  ASP241  GLN242  PRO243  ILE244  GLN245 
 ILE246  TYR247  GLU248  LYS249  ILE250  VAL251  SER252  LYS254  ARG256  PHE257 
 PRO258  SER259  PHE327  ASP328  TYR330 

> <Gold.Protein.RotatedAtoms>
    1.5812  -14.2734   21.7729 H   0  0  0  0  0  0  0  0  0  0  0  0  # atno 1801 bound_to 1791
   -1.7665  -14.2653   23.9331 H   0  0  0  0  0  0  0  0  0  0  0  0  # atno 1839 bound_to 1818
   -0.6344  -13.4533   28.1673 H   0  0  0  0  0  0  0  0  0  0  0  0  # atno 1845 bound_to 1824
   -2.9823  -16.1417   26.1487 H   0  0  0  0  0  0  0  0  0  0  0  0  # atno 1864 bound_to 1854
   -5.2654  -16.4450   30.1482 H   0  0  0  0  0  0  0  0  0  0  0  0  # atno 1892 bound_to 1879
   -6.0608  -15.8359   31.4549 H   0  0  0  0  0  0  0  0  0  0  0  0  # atno 1896 bound_to 1884
   -4.1177  -19.4045   31.4557 H   0  0  0  0  0  0  0  0  0  0  0  0  # atno 1947 bound_to 1922
   -8.0312  -25.0913   35.8107 H   0  0  0  0  0  0  0  0  0  0  0  0  # atno 3370 bound_to 3362
   -3.8857  -10.5412   14.1559 H   0  0  0  0  0  0  0  0  0  0  0  0  # atno 5632 bound_to 5617
   -8.9846   -7.1491   13.8599 H   0  0  0  0  0  0  0  0  0  0  0  0  # atno 5737 bound_to 5717
   -6.2905   -6.5931   15.5489 H   0  0  0  0  0  0  0  0  0  0  0  0  # atno 5778 bound_to 5767
   -4.9010   -6.3536   13.8212 H   0  0  0  0  0  0  0  0  0  0  0  0  # atno 5782 bound_to 5772
   -9.1123   -2.4848   15.2504 H   0  0  0  0  0  0  0  0  0  0  0  0  # atno 5955 bound_to 5918
   -6.8921   -0.6098   14.2251 H   0  0  0  0  0  0  0  0  0  0  0  0  # atno 6027 bound_to 5990
   -7.5124    1.8545   12.6422 H   0  0  0  0  0  0  0  0  0  0  0  0  # atno 6075 bound_to 6056
  -10.3142    2.0326   11.5171 H   0  0  0  0  0  0  0  0  0  0  0  0  # atno 6112 bound_to 6105
  -13.2587    2.8983   12.2268 H   0  0  0  0  0  0  0  0  0  0  0  0  # atno 6164 bound_to 6140
  -16.0782  -13.0823   17.8384 H   0  0  0  0  0  0  0  0  0  0  0  0  # atno 7745 bound_to 7723
  -12.2486  -11.5462   24.0943 H   0  0  0  0  0  0  0  0  0  0  0  0  # atno 7755 bound_to 7731
  -12.5967  -13.0897   24.5879 H   0  0  0  0  0  0  0  0  0  0  0  0  # atno 7756 bound_to 7731
  -11.0454  -12.6844   24.1650 H   0  0  0  0  0  0  0  0  0  0  0  0  # atno 7757 bound_to 7731
  -11.3888  -10.2564   18.3429 H   0  0  0  0  0  0  0  0  0  0  0  0  # atno 7846 bound_to 7831
  -10.8293  -12.7209   18.1800 H   0  0  0  0  0  0  0  0  0  0  0  0  # atno 7884 bound_to 7874
   -9.8297  -14.3841   15.4470 H   0  0  0  0  0  0  0  0  0  0  0  0  # atno 7924 bound_to 7916
  -13.6414  -22.1692   22.5021 H   0  0  0  0  0  0  0  0  0  0  0  0  # atno 8650 bound_to 8630
  -21.0052  -21.2244   30.5029 H   0  0  0  0  0  0  0  0  0  0  0  0  # atno 9263 bound_to 9233
  -20.2236  -18.1002   29.7328 H   0  0  0  0  0  0  0  0  0  0  0  0  # atno 9302 bound_to 9286
  -18.3715  -17.4735   27.2245 H   0  0  0  0  0  0  0  0  0  0  0  0  # atno 9325 bound_to 9315
  -17.5696  -13.6814   24.8067 H   0  0  0  0  0  0  0  0  0  0  0  0  # atno 9363 bound_to 9342
  -14.8500  -13.5712   23.7262 H   0  0  0  0  0  0  0  0  0  0  0  0  # atno 9369 bound_to 9348
  -18.4749   -7.8628   26.6042 H   0  0  0  0  0  0  0  0  0  0  0  0  # atno 9451 bound_to 9430
  -19.4454   -9.9704   24.4528 H   0  0  0  0  0  0  0  0  0  0  0  0  # atno 9511 bound_to 9481
  -17.6969   -7.5553   17.3889 H   0  0  0  0  0  0  0  0  0  0  0  0  # atno 9519 bound_to 9492
  -20.9596  -11.6569   23.8348 H   0  0  0  0  0  0  0  0  0  0  0  0  # atno 9566 bound_to 9536
  -23.0419    1.6661   18.0474 H   0  0  0  0  0  0  0  0  0  0  0  0  # atno 10737 bound_to 10719
  -17.6878    0.2945   14.8870 H   0  0  0  0  0  0  0  0  0  0  0  0  # atno 10918 bound_to 10911
  -16.1534    0.1545   16.5662 H   0  0  0  0  0  0  0  0  0  0  0  0  # atno 10969 bound_to 10948
  -22.4239    4.2325   17.0306 H   0  0  0  0  0  0  0  0  0  0  0  0  # atno 10977 bound_to 10959
  -21.7980   -2.5078   22.3313 H   0  0  0  0  0  0  0  0  0  0  0  0  # atno 11113 bound_to 11093
  -21.4861   -0.5110   25.0944 H   0  0  0  0  0  0  0  0  0  0  0  0  # atno 11173 bound_to 11153
  -18.2282   -0.8392   27.8258 H   0  0  0  0  0  0  0  0  0  0  0  0  # atno 11211 bound_to 11201
  -17.5237    0.3561   30.3884 H   0  0  0  0  0  0  0  0  0  0  0  0  # atno 11249 bound_to 11237
  -16.4489   -0.8425   33.1836 H   0  0  0  0  0  0  0  0  0  0  0  0  # atno 11292 bound_to 11275
  -19.7904   -4.9991   34.0411 H   0  0  0  0  0  0  0  0  0  0  0  0  # atno 11385 bound_to 11366
  -21.9661   -2.6140   31.1916 H   0  0  0  0  0  0  0  0  0  0  0  0  # atno 11493 bound_to 11474
  -19.1068  -10.7539   30.8211 H   0  0  0  0  0  0  0  0  0  0  0  0  # atno 11568 bound_to 11550
  -24.2793    2.3608   29.1982 H   0  0  0  0  0  0  0  0  0  0  0  0  # atno 11673 bound_to 11649
  -24.2529    3.0687   27.6990 H   0  0  0  0  0  0  0  0  0  0  0  0  # atno 11674 bound_to 11649
  -25.5907    2.2236   28.1928 H   0  0  0  0  0  0  0  0  0  0  0  0  # atno 11675 bound_to 11649
   -8.7129    9.1512   27.0142 H   0  0  0  0  0  0  0  0  0  0  0  0  # atno 11686 bound_to 11631
   -9.2559    7.9684   25.9886 H   0  0  0  0  0  0  0  0  0  0  0  0  # atno 11687 bound_to 11631
   -7.8714    8.8045   25.6285 H   0  0  0  0  0  0  0  0  0  0  0  0  # atno 11688 bound_to 11631
  -13.1165   17.0160   22.8155 H   0  0  0  0  0  0  0  0  0  0  0  0  # atno 11826 bound_to 11799
  -18.0988   16.3980   24.3775 H   0  0  0  0  0  0  0  0  0  0  0  0  # atno 11911 bound_to 11856
  -16.7895   15.4225   24.0910 H   0  0  0  0  0  0  0  0  0  0  0  0  # atno 11912 bound_to 11856
  -17.8517   15.0477   25.3073 H   0  0  0  0  0  0  0  0  0  0  0  0  # atno 11913 bound_to 11856
  -28.5290    1.3637   20.6421 H   0  0  0  0  0  0  0  0  0  0  0  0  # atno 12008 bound_to 11984
  -28.3559    3.9449   16.7537 H   0  0  0  0  0  0  0  0  0  0  0  0  # atno 12076 bound_to 12056
  -24.2914    6.8999   12.4156 H   0  0  0  0  0  0  0  0  0  0  0  0  # atno 12159 bound_to 12148
    2.0013   -7.9526   17.1145 H   0  0  0  0  0  0  0  0  0  0  0  0  # atno 15411 bound_to 15403
   -2.0265  -10.8892   21.7432 H   0  0  0  0  0  0  0  0  0  0  0  0  # atno 15475 bound_to 15466
  -12.3419   15.6617   22.3535 LP  0  0  0  0  0  0  0  0  0  0  0  0  # atno 16466 bound_to 11799
  -13.4347   15.6076   23.5657 LP  0  0  0  0  0  0  0  0  0  0  0  0  # atno 16467 bound_to 11799
  -21.4174    5.4913   16.8053 LP  0  0  0  0  0  0  0  0  0  0  0  0  # atno 16468 bound_to 10959
  -22.1516    5.2774   18.2481 LP  0  0  0  0  0  0  0  0  0  0  0  0  # atno 16469 bound_to 10959
  -17.2701    3.3017   15.3084 LP  0  0  0  0  0  0  0  0  0  0  0  0  # atno 16472 bound_to 10886
  -17.4353    3.6355   13.6168 LP  0  0  0  0  0  0  0  0  0  0  0  0  # atno 16473 bound_to 10886
  -17.4866    1.2921   16.5985 LP  0  0  0  0  0  0  0  0  0  0  0  0  # atno 16474 bound_to 10948
  -20.6402   -0.6225   21.9321 LP  0  0  0  0  0  0  0  0  0  0  0  0  # atno 16475 bound_to 11004
  -20.6563    0.1954   20.4054 LP  0  0  0  0  0  0  0  0  0  0  0  0  # atno 16476 bound_to 11004
  -13.7929    1.2263   16.7429 LP  0  0  0  0  0  0  0  0  0  0  0  0  # atno 16477 bound_to 10914
  -14.7180    1.0891   18.2007 LP  0  0  0  0  0  0  0  0  0  0  0  0  # atno 16478 bound_to 10914
  -19.0733   -0.1639   16.9003 LP  0  0  0  0  0  0  0  0  0  0  0  0  # atno 16479 bound_to 10951
  -20.0100   -1.2412   17.8812 LP  0  0  0  0  0  0  0  0  0  0  0  0  # atno 16480 bound_to 10951
  -24.3027    1.0054   18.8356 LP  0  0  0  0  0  0  0  0  0  0  0  0  # atno 16482 bound_to 10719
  -24.5168    1.6719   17.3603 LP  0  0  0  0  0  0  0  0  0  0  0  0  # atno 16483 bound_to 10719
  -26.4496    0.7905   17.7389 LP  0  0  0  0  0  0  0  0  0  0  0  0  # atno 16484 bound_to 11987
  -25.5250    2.2140   18.0834 LP  0  0  0  0  0  0  0  0  0  0  0  0  # atno 16485 bound_to 11987
  -26.5840    6.1937   14.7104 LP  0  0  0  0  0  0  0  0  0  0  0  0  # atno 16486 bound_to 12059
  -27.6542    5.4173   15.8292 LP  0  0  0  0  0  0  0  0  0  0  0  0  # atno 16487 bound_to 12059
  -24.2289   -0.3963   23.1675 LP  0  0  0  0  0  0  0  0  0  0  0  0  # atno 16490 bound_to 11046
  -25.1562   -0.7196   21.7407 LP  0  0  0  0  0  0  0  0  0  0  0  0  # atno 16491 bound_to 11046
  -27.6692    2.4626   17.3720 LP  0  0  0  0  0  0  0  0  0  0  0  0  # atno 16492 bound_to 12056
  -17.1548    1.1939   13.4827 LP  0  0  0  0  0  0  0  0  0  0  0  0  # atno 16493 bound_to 10911
  -13.9762    1.2389   13.8533 LP  0  0  0  0  0  0  0  0  0  0  0  0  # atno 16500 bound_to 6108
  -12.4017    0.5271   13.9735 LP  0  0  0  0  0  0  0  0  0  0  0  0  # atno 16501 bound_to 6108
  -12.1708    1.9832   11.2096 LP  0  0  0  0  0  0  0  0  0  0  0  0  # atno 16502 bound_to 6140
   -9.1274    2.0478   16.0523 LP  0  0  0  0  0  0  0  0  0  0  0  0  # atno 16503 bound_to 5921
   -7.9937    2.5730   14.8527 LP  0  0  0  0  0  0  0  0  0  0  0  0  # atno 16504 bound_to 5921
   -9.3789    2.2846   12.9754 LP  0  0  0  0  0  0  0  0  0  0  0  0  # atno 16505 bound_to 6105
   -9.5169    4.4274   10.2605 LP  0  0  0  0  0  0  0  0  0  0  0  0  # atno 16506 bound_to 6059
  -10.5587    4.6078   11.6325 LP  0  0  0  0  0  0  0  0  0  0  0  0  # atno 16507 bound_to 6059
  -10.3783    0.1329   12.5934 LP  0  0  0  0  0  0  0  0  0  0  0  0  # atno 16510 bound_to 5858
  -10.1374    0.6397   14.2320 LP  0  0  0  0  0  0  0  0  0  0  0  0  # atno 16511 bound_to 5858
   -9.2769   -1.2717   14.0052 LP  0  0  0  0  0  0  0  0  0  0  0  0  # atno 16516 bound_to 5918
   -7.7334    0.6657   15.0851 LP  0  0  0  0  0  0  0  0  0  0  0  0  # atno 16517 bound_to 5990
   -6.0089    3.6171   11.8859 LP  0  0  0  0  0  0  0  0  0  0  0  0  # atno 16518 bound_to 5993
   -7.4155    3.9590   12.8370 LP  0  0  0  0  0  0  0  0  0  0  0  0  # atno 16519 bound_to 5993
   -7.5597    0.4530   11.6104 LP  0  0  0  0  0  0  0  0  0  0  0  0  # atno 16520 bound_to 6056
  -21.7514    0.2544   27.2397 LP  0  0  0  0  0  0  0  0  0  0  0  0  # atno 16523 bound_to 11156
  -20.5344    1.4777   27.3896 LP  0  0  0  0  0  0  0  0  0  0  0  0  # atno 16524 bound_to 11156
  -19.9768   -0.8834   27.9460 LP  0  0  0  0  0  0  0  0  0  0  0  0  # atno 16525 bound_to 11201
  -16.9594   -1.1071   28.8051 LP  0  0  0  0  0  0  0  0  0  0  0  0  # atno 16528 bound_to 11204
  -15.9245   -0.8072   30.1612 LP  0  0  0  0  0  0  0  0  0  0  0  0  # atno 16529 bound_to 11204
  -18.2957    1.0491   31.7950 LP  0  0  0  0  0  0  0  0  0  0  0  0  # atno 16530 bound_to 11237
  -21.5136   -2.2413   25.3586 LP  0  0  0  0  0  0  0  0  0  0  0  0  # atno 16533 bound_to 11153
  -21.1779   -4.3484   24.5565 LP  0  0  0  0  0  0  0  0  0  0  0  0  # atno 16540 bound_to 11096
  -19.7491   -3.3808   24.7055 LP  0  0  0  0  0  0  0  0  0  0  0  0  # atno 16541 bound_to 11096
  -16.7231   -1.5152   15.2567 LP  0  0  0  0  0  0  0  0  0  0  0  0  # atno 16544 bound_to 10768
  -16.2798   -1.8557   13.6173 LP  0  0  0  0  0  0  0  0  0  0  0  0  # atno 16545 bound_to 10768
  -14.2711   -1.1475   33.0869 LP  0  0  0  0  0  0  0  0  0  0  0  0  # atno 16552 bound_to 11240
  -14.9772   -2.3189   32.0243 LP  0  0  0  0  0  0  0  0  0  0  0  0  # atno 16553 bound_to 11240
  -18.0364   -1.1917   32.5416 LP  0  0  0  0  0  0  0  0  0  0  0  0  # atno 16554 bound_to 11275
  -19.8008   -4.1953   32.2218 LP  0  0  0  0  0  0  0  0  0  0  0  0  # atno 16558 bound_to 11278
  -19.3350   -2.5301   32.3227 LP  0  0  0  0  0  0  0  0  0  0  0  0  # atno 16559 bound_to 11278
  -18.5290   -9.2478   25.5367 LP  0  0  0  0  0  0  0  0  0  0  0  0  # atno 16561 bound_to 9430
  -21.6719   -6.7423   32.2620 LP  0  0  0  0  0  0  0  0  0  0  0  0  # atno 16562 bound_to 11325
  -20.7269   -5.8055   31.1532 LP  0  0  0  0  0  0  0  0  0  0  0  0  # atno 16563 bound_to 11325
  -22.1355   -4.2418   31.8175 LP  0  0  0  0  0  0  0  0  0  0  0  0  # atno 16564 bound_to 11474
  -19.7072   -6.7340   34.1351 LP  0  0  0  0  0  0  0  0  0  0  0  0  # atno 16565 bound_to 11366
  -21.0378   -8.0976   27.3647 LP  0  0  0  0  0  0  0  0  0  0  0  0  # atno 16566 bound_to 9387
  -21.2375   -9.3950   26.2347 LP  0  0  0  0  0  0  0  0  0  0  0  0  # atno 16567 bound_to 9387
  -19.3986  -11.3563   32.3043 LP  0  0  0  0  0  0  0  0  0  0  0  0  # atno 16568 bound_to 11550
  -18.6615   -9.9087   32.1384 LP  0  0  0  0  0  0  0  0  0  0  0  0  # atno 16569 bound_to 11550
  -19.4147  -11.0179   25.6919 LP  0  0  0  0  0  0  0  0  0  0  0  0  # atno 16570 bound_to 9345
  -18.4542  -11.8012   24.4820 LP  0  0  0  0  0  0  0  0  0  0  0  0  # atno 16571 bound_to 9345
  -14.6705  -13.7137   25.3372 LP  0  0  0  0  0  0  0  0  0  0  0  0  # atno 16572 bound_to 9348
  -13.6697  -12.7461   24.4836 LP  0  0  0  0  0  0  0  0  0  0  0  0  # atno 16573 bound_to 9348
  -19.7115   -8.5973   23.4020 LP  0  0  0  0  0  0  0  0  0  0  0  0  # atno 16574 bound_to 9481
   -7.7315   -3.4697   16.2024 LP  0  0  0  0  0  0  0  0  0  0  0  0  # atno 16579 bound_to 5720
   -9.2080   -3.9621   15.4423 LP  0  0  0  0  0  0  0  0  0  0  0  0  # atno 16580 bound_to 5720
   -1.2745   -9.8916   20.7005 LP  0  0  0  0  0  0  0  0  0  0  0  0  # atno 16587 bound_to 15466
   -1.9067   -9.3032   22.0864 LP  0  0  0  0  0  0  0  0  0  0  0  0  # atno 16588 bound_to 15466
  -10.6185   -9.9416   16.7972 LP  0  0  0  0  0  0  0  0  0  0  0  0  # atno 16591 bound_to 7831
   -2.6172  -13.0166   26.6344 LP  0  0  0  0  0  0  0  0  0  0  0  0  # atno 16592 bound_to 1821
   -4.0594  -13.9398   26.3742 LP  0  0  0  0  0  0  0  0  0  0  0  0  # atno 16593 bound_to 1821
   -7.6538  -13.0807   18.8570 LP  0  0  0  0  0  0  0  0  0  0  0  0  # atno 16594 bound_to 7834
   -7.4852  -13.0263   17.1340 LP  0  0  0  0  0  0  0  0  0  0  0  0  # atno 16595 bound_to 7834
   -8.7802   -8.4960   14.9670 LP  0  0  0  0  0  0  0  0  0  0  0  0  # atno 16596 bound_to 5717
   -7.5628   -5.3922   15.4993 LP  0  0  0  0  0  0  0  0  0  0  0  0  # atno 16597 bound_to 5767
   -0.0460  -12.4969   18.7651 LP  0  0  0  0  0  0  0  0  0  0  0  0  # atno 16600 bound_to 1745
   -1.1497  -13.2570   19.8625 LP  0  0  0  0  0  0  0  0  0  0  0  0  # atno 16601 bound_to 1745
   -0.1353  -13.7670   24.3217 LP  0  0  0  0  0  0  0  0  0  0  0  0  # atno 16602 bound_to 1818
   -3.5104   -6.8842   14.4791 LP  0  0  0  0  0  0  0  0  0  0  0  0  # atno 16603 bound_to 5772
   -3.4931   -5.6463   13.4143 LP  0  0  0  0  0  0  0  0  0  0  0  0  # atno 16604 bound_to 5772
    0.5406   -8.3825   17.9730 LP  0  0  0  0  0  0  0  0  0  0  0  0  # atno 16605 bound_to 15403
    0.5935  -14.1085   20.3368 LP  0  0  0  0  0  0  0  0  0  0  0  0  # atno 16606 bound_to 1791
   -4.3624   -9.7196   12.6843 LP  0  0  0  0  0  0  0  0  0  0  0  0  # atno 16607 bound_to 5617
   -5.4250   -7.8082   13.8192 LP  0  0  0  0  0  0  0  0  0  0  0  0  # atno 16608 bound_to 5620
   -6.6465   -7.3578   12.6768 LP  0  0  0  0  0  0  0  0  0  0  0  0  # atno 16609 bound_to 5620
   -9.0263  -10.2512   15.7926 LP  0  0  0  0  0  0  0  0  0  0  0  0  # atno 16610 bound_to 7788
  -10.3065  -10.4540   14.6437 LP  0  0  0  0  0  0  0  0  0  0  0  0  # atno 16611 bound_to 7788
   -9.6383  -12.3405   16.9639 LP  0  0  0  0  0  0  0  0  0  0  0  0  # atno 16612 bound_to 7874
    0.1442  -16.4749   24.2443 LP  0  0  0  0  0  0  0  0  0  0  0  0  # atno 16613 bound_to 1794
    0.8135  -16.0890   22.6941 LP  0  0  0  0  0  0  0  0  0  0  0  0  # atno 16614 bound_to 1794
    0.2953  -14.6084   28.8375 LP  0  0  0  0  0  0  0  0  0  0  0  0  # atno 16615 bound_to 1824
   -1.2078  -14.9694   28.3110 LP  0  0  0  0  0  0  0  0  0  0  0  0  # atno 16616 bound_to 1824
   -1.8687  -15.9462   27.4911 LP  0  0  0  0  0  0  0  0  0  0  0  0  # atno 16617 bound_to 1854
  -15.7210  -15.5281   27.7609 LP  0  0  0  0  0  0  0  0  0  0  0  0  # atno 16622 bound_to 9318
  -15.4090  -13.8420   27.5167 LP  0  0  0  0  0  0  0  0  0  0  0  0  # atno 16623 bound_to 9318
  -17.0116  -14.2863   26.3507 LP  0  0  0  0  0  0  0  0  0  0  0  0  # atno 16624 bound_to 9342
  -21.1350   -6.8128   22.9423 LP  0  0  0  0  0  0  0  0  0  0  0  0  # atno 16627 bound_to 9433
  -21.8129   -8.3874   22.6950 LP  0  0  0  0  0  0  0  0  0  0  0  0  # atno 16628 bound_to 9433
  -16.2118   -8.1061   17.7623 LP  0  0  0  0  0  0  0  0  0  0  0  0  # atno 16629 bound_to 9492
  -16.8492   -6.8471   18.5841 LP  0  0  0  0  0  0  0  0  0  0  0  0  # atno 16630 bound_to 9492
  -17.2093  -13.2596   20.2417 LP  0  0  0  0  0  0  0  0  0  0  0  0  # atno 16631 bound_to 7667
  -17.4198  -11.9368   19.1436 LP  0  0  0  0  0  0  0  0  0  0  0  0  # atno 16632 bound_to 7667
  -14.4625  -13.6219   18.2570 LP  0  0  0  0  0  0  0  0  0  0  0  0  # atno 16634 bound_to 7723
  -12.5826  -12.0323   15.7903 LP  0  0  0  0  0  0  0  0  0  0  0  0  # atno 16635 bound_to 7726
  -13.0510  -13.0843   17.0840 LP  0  0  0  0  0  0  0  0  0  0  0  0  # atno 16636 bound_to 7726
  -20.0305   -5.8986   17.2551 LP  0  0  0  0  0  0  0  0  0  0  0  0  # atno 16637 bound_to 10539
  -20.7679   -5.8324   15.6892 LP  0  0  0  0  0  0  0  0  0  0  0  0  # atno 16638 bound_to 10539
   -5.1323  -15.3148   32.6851 LP  0  0  0  0  0  0  0  0  0  0  0  0  # atno 16639 bound_to 1884
   -6.6439  -15.8612   32.9736 LP  0  0  0  0  0  0  0  0  0  0  0  0  # atno 16640 bound_to 1884
  -16.8497  -16.8252   27.8022 LP  0  0  0  0  0  0  0  0  0  0  0  0  # atno 16641 bound_to 9315
   -3.8866  -17.2930   29.4857 LP  0  0  0  0  0  0  0  0  0  0  0  0  # atno 16642 bound_to 1879
   -1.8177  -16.0473   30.1184 LP  0  0  0  0  0  0  0  0  0  0  0  0  # atno 16643 bound_to 1857
   -1.8087  -17.6572   29.4793 LP  0  0  0  0  0  0  0  0  0  0  0  0  # atno 16644 bound_to 1857
  -18.4800  -16.9395   23.0767 LP  0  0  0  0  0  0  0  0  0  0  0  0  # atno 16645 bound_to 7565
  -17.2646  -18.1335   23.3884 LP  0  0  0  0  0  0  0  0  0  0  0  0  # atno 16646 bound_to 7565
  -20.5655  -17.7753   27.3779 LP  0  0  0  0  0  0  0  0  0  0  0  0  # atno 16647 bound_to 9289
  -19.7776  -17.1554   25.9654 LP  0  0  0  0  0  0  0  0  0  0  0  0  # atno 16648 bound_to 9289
  -18.4635  -18.2004   31.7232 LP  0  0  0  0  0  0  0  0  0  0  0  0  # atno 16649 bound_to 9236
  -18.3824  -19.9150   31.4918 LP  0  0  0  0  0  0  0  0  0  0  0  0  # atno 16650 bound_to 9236
  -20.0477  -19.7623   29.2209 LP  0  0  0  0  0  0  0  0  0  0  0  0  # atno 16653 bound_to 9286
  -21.9141  -21.0171   31.9831 LP  0  0  0  0  0  0  0  0  0  0  0  0  # atno 16654 bound_to 9233
  -11.1126  -22.5017   34.1230 LP  0  0  0  0  0  0  0  0  0  0  0  0  # atno 16655 bound_to 3365
  -11.7618  -24.0610   33.7395 LP  0  0  0  0  0  0  0  0  0  0  0  0  # atno 16656 bound_to 3365
   -7.4895  -23.8322   36.8952 LP  0  0  0  0  0  0  0  0  0  0  0  0  # atno 16657 bound_to 3362
   -4.8280  -19.1931   29.8673 LP  0  0  0  0  0  0  0  0  0  0  0  0  # atno 16658 bound_to 1922

> <Gold.Score>
     Fitness  S(hb_ext) S(vdw_ext)  S(hb_int)    S(int)      intcor
     29.33       1.55      20.99       0.00      -1.08      -0.76

> <Gold.Goldscore.Fitness>
29.3251

> <Gold.Goldscore.Internal.Vdw>
-1.3217

> <Gold.Goldscore.Internal.Torsion>
-0.5152

> <Gold.Goldscore.External.Vdw>
20.9860

> <Gold.Goldscore.Internal.HBond>
0.0000

> <Gold.Goldscore.External.HBond>
1.5466

> <Gold.Goldscore.Internal.Correction>
-0.7595

> <Gold.Goldscore.Hbonds>
donor molecule, donor type, donor heavy atom, donor atom, acceptor molecule, acceptor atom, score
      P1  H  6140  6164       L1     9  0.03
      L1  H     8    22       P1 10886  0.75

> <Gold.Goldscore.Internal.Vdw.Weighted>
-1.3217

> <Gold.Goldscore.Internal.Torsion.Weighted>
-0.5152

> <Gold.Goldscore.External.Vdw.Weighted>
28.8558

> <Gold.Goldscore.Internal.HBond.Weighted>
0.0000

> <Gold.Goldscore.External.HBond.Weighted>
1.5466

> <Gold.Goldscore.Internal.Correction.Weighted>
-0.7595

> <Gold.Rescore>
     Score     S(PLP)   S(hbond)     S(cho)   S(metal)  DE(clash)   DE(tors)     intcor
     26.60     -26.72       0.52       0.00       0.00       0.02       0.83       ----

> <Gold.PLP.Fitness>
26.6031

> <Gold.PLP.PLP>
-26.7210

> <Gold.PLP.part.hbond>
-0.4924

> <Gold.PLP.part.metal>
0.0000

> <Gold.PLP.part.buried>
-1.6762

> <Gold.PLP.part.nonpolar>
-25.8744

> <Gold.PLP.part.repulsive>
0.5204

> <Gold.PLP.ligand.clash>
0.0169

> <Gold.PLP.ligand.torsion>
0.8305

> <Gold.PLP.Chemscore.Hbond>
0.5200

> <Gold.PLP.Chemscore.CHOScore>
0.0000

> <Gold.PLP.Chemscore.Metal>
0.0000

> <Gold.Chemscore.Hbonds>
donor molecule, donor type, donor heavy atom, donor atom, acceptor molecule, acceptor atom, score
      L1  H     8    22       P1 10886  1.00

> <Gold.PLP.Chemscore.Internal.Correction>
   9.000000E+99

#       Name:                CT1002167954
#       Creating user name   hitesit
#       Creation time:       Sun Apr 16 22:52:01 2023


#       File generated by GOLD software.
#

@<TRIPOS>MOLECULE
CT1002167954|ligand_prepared|mol2|1|dock6
    29    30     1
SMALL
NO_CHARGES


@<TRIPOS>ATOM
      1 C1         -13.6984   0.7423  21.9469 C.3            1 RES1               0.0000
      2 C2         -12.5622  -0.2422  22.2913 C.ar           1 RES1               0.0000
      3 C3         -13.1257   2.1430  22.1428 C.2            1 RES1               0.0000
      4 C4         -14.1100   0.4336  20.5116 C.2            1 RES1               0.0000
      5 C5         -14.9484   0.5927  22.8450 C.3            1 RES1               0.0000
      6 C6         -11.2352   0.0895  22.0347 C.ar           1 RES1               0.0000
      7 C7         -12.8247  -1.4823  22.8673 C.ar           1 RES1               0.0000
      8 N8         -12.8381   2.8700  21.0253 N.am           1 RES1               0.0000
      9 O9         -12.8930   2.5877  23.2601 O.2            1 RES1               0.0000
     10 N10        -13.8839   1.3919  19.5586 N.am           1 RES1               0.0000
     11 O11        -14.6127  -0.6374  20.1945 O.2            1 RES1               0.0000
     12 C12        -15.9184   1.7594  22.7451 C.3            1 RES1               0.0000
     13 C13        -10.2076  -0.7856  22.3454 C.ar           1 RES1               0.0000
     14 C14        -11.7956  -2.3560  23.1770 C.ar           1 RES1               0.0000
     15 C15        -13.2386   2.5840  19.7449 C.2            1 RES1               0.0000
     16 C16        -10.4870  -2.0086  22.9171 C.ar           1 RES1               0.0000
     17 O17        -13.0246   3.3703  18.8267 O.2            1 RES1               0.0000
     18 H18        -15.4747  -0.3288  22.5670 H              1 RES1               0.0000
     19 H19        -14.6238   0.4918  23.8880 H              1 RES1               0.0000
     20 H20        -10.9962   1.0465  21.5830 H              1 RES1               0.0000
     21 H21        -13.8467  -1.7772  23.0797 H              1 RES1               0.0000
     22 H22        -12.2729   3.7033  21.1536 H              1 RES1               0.0000
     23 H23        -14.2288   1.1987  18.6236 H              1 RES1               0.0000
     24 H24        -16.7771   1.6039  23.3948 H              1 RES1               0.0000
     25 H25        -15.4353   2.6890  23.0387 H              1 RES1               0.0000
     26 H26        -16.2811   1.8732  21.7256 H              1 RES1               0.0000
     27 H27         -9.1795  -0.5080  22.1376 H              1 RES1               0.0000
     28 H28        -12.0202  -3.3178  23.6263 H              1 RES1               0.0000
     29 H29         -9.6818  -2.6938  23.1608 H              1 RES1               0.0000
@<TRIPOS>BOND
    1    1    2 1     
    2    1    3 1     
    3    1    4 1     
    4    1    5 1     
    5    2    6 ar    
    6    2    7 ar    
    7    3    8 1     
    8    3    9 2     
    9    4   10 1     
   10    4   11 2     
   11    5   12 1     
   12    5   18 1     
   13    5   19 1     
   14    6   13 ar    
   15    6   20 1     
   16    7   14 ar    
   17    7   21 1     
   18    8   15 1     
   19    8   22 1     
   20   10   15 1     
   21   10   23 1     
   22   12   24 1     
   23   12   25 1     
   24   12   26 1     
   25   13   16 ar    
   26   13   27 1     
   27   14   16 ar    
   28   14   28 1     
   29   15   17 2     
   30   16   29 1     
@<TRIPOS>SUBSTRUCTURE
      1 RES1           1
@<TRIPOS>SET
DONOR_HYDROGENS      STATIC     ATOMS    <user>   **** ""
2 22 23
ATOM$RED        STATIC     ATOMS    COLORGROUP SYSTEM
2 22 23
@<TRIPOS>COMMENT
> <Gold.Version>
2022.3.0

> <Gold.Id.Protein>
unknown|3mvj_clean|pdb

> <Gold.Protein.RotatedTorsions>
[ 11826 11799 11798 11795 ] final  -79.74 input   60.01 | X-H torsion
[ 11911 11856 11855 11854 ] final   10.76 input   60.02 | X-H torsion
[ 10977 10959 10958 10956 ] final -121.42 input   60.00 | X-H torsion
[ 10969 10948 10949 10950 ] final  157.02 input   32.02 | X-H torsion
[ 10737 10719 10718 10716 ] final   73.95 input   60.01 | X-H torsion
[ 12076 12056 12057 12058 ] final -146.69 input   63.02 | X-H torsion
[ 10918 10911 10912 10913 ] final  -78.94 input  -92.90 | X-H torsion
[ 6164 6140 6141 6142 ] final -102.89 input   39.58 | X-H torsion
[ 6112 6105 6106 6107 ] final -125.56 input  -69.34 | X-H torsion
[ 5955 5918 5919 5920 ] final  -50.75 input  125.26 | X-H torsion
[ 6027 5990 5991 5992 ] final  152.37 input  110.40 | X-H torsion
[ 6075 6056 6057 6058 ] final -142.09 input  107.04 | X-H torsion
[ 11686 11631 11630 11629 ] final  -11.90 input   60.02 | X-H torsion
[ 11211 11201 11202 11203 ] final   81.93 input   18.84 | X-H torsion
[ 11249 11237 11238 11239 ] final  122.35 input  111.29 | X-H torsion
[ 11173 11153 11154 11155 ] final -100.35 input   30.50 | X-H torsion
[ 11292 11275 11276 11277 ] final  -21.79 input   58.53 | X-H torsion
[ 9451 9430 9431 9432 ] final  139.43 input  110.06 | X-H torsion
[ 11493 11474 11475 11476 ] final   -3.80 input  115.95 | X-H torsion
[ 11385 11366 11367 11368 ] final  -59.58 input  117.79 | X-H torsion
[ 11568 11550 11549 11547 ] final   79.43 input   59.97 | X-H torsion
[ 9369 9348 9346 9343 ] final    3.55 input   60.02 | X-H torsion
[ 9511 9481 9482 9483 ] final   40.41 input   75.78 | X-H torsion
[ 15475 15466 15465 15463 ] final   33.04 input   60.00 | X-H torsion
[ 7755 7731 7730 7729 ] final -130.05 input   60.02 | X-H torsion
[ 7846 7831 7832 7833 ] final  109.53 input  113.97 | X-H torsion
[ 5737 5717 5718 5719 ] final  164.32 input  137.93 | X-H torsion
[ 5778 5767 5768 5769 ] final  175.36 input  116.46 | X-H torsion
[ 1839 1818 1819 1820 ] final -101.38 input   43.70 | X-H torsion
[ 5782 5772 5771 5768 ] final   17.65 input   59.97 | X-H torsion
[ 15411 15403 15404 15405 ] final  163.98 input  102.24 | X-H torsion
[ 1801 1791 1792 1793 ] final -162.61 input  -10.55 | X-H torsion
[ 5632 5617 5618 5619 ] final   -1.06 input   93.34 | X-H torsion
[ 7884 7874 7875 7876 ] final -133.43 input   68.03 | X-H torsion
[ 1845 1824 1822 1819 ] final  -25.89 input   60.02 | X-H torsion
[ 1864 1854 1855 1856 ] final   -0.28 input   57.50 | X-H torsion
[ 9363 9342 9343 9344 ] final  135.66 input   55.58 | X-H torsion
[ 9519 9492 9491 9489 ] final -100.30 input   60.02 | X-H torsion
[ 7745 7723 7724 7725 ] final  117.58 input   17.81 | X-H torsion
[ 1896 1884 1883 1880 ] final -125.80 input   60.01 | X-H torsion
[ 9325 9315 9316 9317 ] final   -2.72 input  -36.21 | X-H torsion
[ 1892 1879 1880 1881 ] final  -95.85 input   98.21 | X-H torsion
[ 9302 9286 9287 9288 ] final  145.07 input   37.00 | X-H torsion
[ 9263 9233 9234 9235 ] final  -50.99 input   95.32 | X-H torsion
[ 3370 3362 3363 3364 ] final  125.99 input   97.92 | X-H torsion
[ 1947 1922 1923 1924 ] final  118.32 input  104.43 | X-H torsion
[ 12159 12148 12149 12150 ] final  -55.70 input  116.04 | X-H torsion
[ 11673 11649 11648 11647 ] final -160.80 input   59.99 | X-H torsion
[ 12008 11984 11985 11986 ] final  145.41 input   61.04 | X-H torsion
[ 11113 11093 11094 11095 ] final  105.61 input   39.50 | X-H torsion
[ 7924 7916 7917 7918 ] final  -22.01 input   66.66 | X-H torsion
[ 8650 8630 8631 8632 ] final   58.31 input   75.31 | X-H torsion
[ 9566 9536 9537 9538 ] final  175.21 input  103.50 | X-H torsion
[ 16472 10886 10885 10884 ] final  156.03 input    0.00 | X-H torsion
[ 16475 11004 11003 11002 ] final  127.83 input    0.00 | X-H torsion
[ 16477 10914 10913 10912 ] final  153.07 input    0.00 | X-H torsion
[ 16479 10951 10950 10949 ] final   69.54 input   -0.00 | X-H torsion
[ 16484 11987 11986 11985 ] final -175.73 input    0.00 | X-H torsion
[ 16486 12059 12058 12057 ] final  -56.21 input   -0.00 | X-H torsion
[ 16490 11046 11045 11044 ] final  -49.13 input    0.00 | X-H torsion
[ 16500 6108 6107 6106 ] final  169.34 input    0.00 | X-H torsion
[ 16503 5921 5920 5919 ] final  167.40 input   -0.00 | X-H torsion
[ 16506 6059 6058 6057 ] final -113.84 input    0.00 | X-H torsion
[ 16510 5858 5857 5856 ] final  132.19 input    0.00 | X-H torsion
[ 16518 5993 5992 5991 ] final   49.16 input   -0.00 | X-H torsion
[ 16523 11156 11155 11154 ] final -147.72 input    0.00 | X-H torsion
[ 16528 11204 11203 11202 ] final -146.31 input    0.00 | X-H torsion
[ 16540 11096 11095 11094 ] final   -9.70 input   -0.00 | X-H torsion
[ 16544 10768 10767 10766 ] final  106.92 input   -0.00 | X-H torsion
[ 16552 11240 11239 11238 ] final  -95.63 input    0.00 | X-H torsion
[ 16558 11278 11277 11276 ] final  158.81 input   -0.00 | X-H torsion
[ 16562 11325 11324 11323 ] final -150.39 input   -0.00 | X-H torsion
[ 16566 9387 9386 9385 ] final -111.22 input   -0.00 | X-H torsion
[ 16570 9345 9344 9343 ] final   57.65 input    0.00 | X-H torsion
[ 16579 5720 5719 5718 ] final -164.45 input    0.00 | X-H torsion
[ 16592 1821 1820 1819 ] final -149.18 input    0.00 | X-H torsion
[ 16594 7834 7833 7832 ] final   98.23 input    0.00 | X-H torsion
[ 16600 1745 1744 1743 ] final -119.73 input    0.00 | X-H torsion
[ 16608 5620 5619 5618 ] final   -8.36 input   -0.00 | X-H torsion
[ 16610 7788 7787 7786 ] final  169.96 input   -0.00 | X-H torsion
[ 16613 1794 1793 1792 ] final  109.54 input   -0.00 | X-H torsion
[ 16622 9318 9317 9316 ] final   39.10 input   -0.00 | X-H torsion
[ 16627 9433 9432 9431 ] final   33.80 input    0.00 | X-H torsion
[ 16631 7667 7666 7665 ] final  -19.77 input   -0.00 | X-H torsion
[ 16635 7726 7725 7724 ] final  -16.68 input    0.00 | X-H torsion
[ 16637 10539 10538 10537 ] final  150.38 input   -0.00 | X-H torsion
[ 16643 1857 1856 1855 ] final  122.36 input    0.00 | X-H torsion
[ 16645 7565 7564 7563 ] final  -21.09 input    0.00 | X-H torsion
[ 16647 9289 9288 9287 ] final  -66.23 input    0.00 | X-H torsion
[ 16649 9236 9235 9234 ] final  140.62 input    0.00 | X-H torsion
[ 16655 3365 3364 3363 ] final  -95.74 input    0.00 | X-H torsion

> <Gold.Protein.ActiveResidues>
 LEU49   GLY50   THR51   GLY52   SER53   PHE54   VAL57   LEU82   LYS83   GLN84  
 HIS87   GLU127  PHE129  SER130  LEU132  ARG133  ARG134  ILE135  GLY136  ARG137 
 ARG165  ASP166  LEU167  LYS168  PRO169  GLU170  ASN171  LEU172  LEU173  ASP184 
 GLY186  PHE187  TPO197  LEU198  CYS199  GLY200  THR201  PRO202  GLU203  TYR204 
 LEU205  ILE209  ILE210  VAL226  LEU227  TYR229  GLU230  ALA233  GLY234  TYR235 
 PRO236  PRO237  PHE238  PHE239  ALA240  ASP241  GLN242  PRO243  ILE244  GLN245 
 ILE246  TYR247  GLU248  LYS249  ILE250  VAL251  SER252  LYS254  ARG256  PHE257 
 PRO258  SER259  PHE327  ASP328  TYR330 

> <Gold.Protein.RotatedAtoms>
    0.8431  -13.4551   20.5979 H   0  0  0  0  0  0  0  0  0  0  0  0  # atno 1801 bound_to 1791
   -1.0457  -14.7689   23.6787 H   0  0  0  0  0  0  0  0  0  0  0  0  # atno 1839 bound_to 1818
   -1.3063  -14.0394   28.0373 H   0  0  0  0  0  0  0  0  0  0  0  0  # atno 1845 bound_to 1824
   -1.8864  -16.3538   27.4946 H   0  0  0  0  0  0  0  0  0  0  0  0  # atno 1864 bound_to 1854
   -3.7233  -16.6076   29.7378 H   0  0  0  0  0  0  0  0  0  0  0  0  # atno 1892 bound_to 1879
   -5.8118  -15.5019   33.2794 H   0  0  0  0  0  0  0  0  0  0  0  0  # atno 1896 bound_to 1884
   -5.1802  -19.3535   30.0906 H   0  0  0  0  0  0  0  0  0  0  0  0  # atno 1947 bound_to 1922
   -7.1388  -24.0748   35.8529 H   0  0  0  0  0  0  0  0  0  0  0  0  # atno 3370 bound_to 3362
   -4.3415   -9.3762   12.9675 H   0  0  0  0  0  0  0  0  0  0  0  0  # atno 5632 bound_to 5617
   -9.2831   -8.4226   14.9812 H   0  0  0  0  0  0  0  0  0  0  0  0  # atno 5737 bound_to 5717
   -6.4622   -6.3013   16.2049 H   0  0  0  0  0  0  0  0  0  0  0  0  # atno 5778 bound_to 5767
   -4.7399   -5.9508   13.4974 H   0  0  0  0  0  0  0  0  0  0  0  0  # atno 5782 bound_to 5772
   -9.5473   -1.2699   14.0835 H   0  0  0  0  0  0  0  0  0  0  0  0  # atno 5955 bound_to 5918
   -6.5754   -0.4187   14.8461 H   0  0  0  0  0  0  0  0  0  0  0  0  # atno 6027 bound_to 5990
   -6.7882    1.3017   11.7052 H   0  0  0  0  0  0  0  0  0  0  0  0  # atno 6075 bound_to 6056
   -9.4276    2.1568   13.0481 H   0  0  0  0  0  0  0  0  0  0  0  0  # atno 6112 bound_to 6105
  -12.3836    1.7374   12.1495 H   0  0  0  0  0  0  0  0  0  0  0  0  # atno 6164 bound_to 6140
  -14.9969  -13.4962   18.9009 H   0  0  0  0  0  0  0  0  0  0  0  0  # atno 7745 bound_to 7723
  -11.0331  -12.6140   24.1433 H   0  0  0  0  0  0  0  0  0  0  0  0  # atno 7755 bound_to 7731
  -12.3174  -11.5667   24.1129 H   0  0  0  0  0  0  0  0  0  0  0  0  # atno 7756 bound_to 7731
  -12.5406  -13.1387   24.5908 H   0  0  0  0  0  0  0  0  0  0  0  0  # atno 7757 bound_to 7731
  -11.3333  -10.0981   18.3840 H   0  0  0  0  0  0  0  0  0  0  0  0  # atno 7846 bound_to 7831
   -9.5067  -12.5515   18.0635 H   0  0  0  0  0  0  0  0  0  0  0  0  # atno 7884 bound_to 7874
   -9.3070  -13.5847   15.3400 H   0  0  0  0  0  0  0  0  0  0  0  0  # atno 7924 bound_to 7916
  -13.6341  -22.0955   22.5444 H   0  0  0  0  0  0  0  0  0  0  0  0  # atno 8650 bound_to 8630
  -21.2021  -21.2036   30.4108 H   0  0  0  0  0  0  0  0  0  0  0  0  # atno 9263 bound_to 9233
  -19.8391  -19.7594   29.6348 H   0  0  0  0  0  0  0  0  0  0  0  0  # atno 9302 bound_to 9286
  -17.0291  -16.6122   27.9591 H   0  0  0  0  0  0  0  0  0  0  0  0  # atno 9325 bound_to 9315
  -16.7221  -14.1350   24.9202 H   0  0  0  0  0  0  0  0  0  0  0  0  # atno 9363 bound_to 9342
  -14.8294  -13.8149   25.1982 H   0  0  0  0  0  0  0  0  0  0  0  0  # atno 9369 bound_to 9348
  -17.7690   -8.0689   25.9988 H   0  0  0  0  0  0  0  0  0  0  0  0  # atno 9451 bound_to 9430
  -19.5074   -9.9583   24.4800 H   0  0  0  0  0  0  0  0  0  0  0  0  # atno 9511 bound_to 9481
  -17.7048   -6.9909   17.9269 H   0  0  0  0  0  0  0  0  0  0  0  0  # atno 9519 bound_to 9492
  -20.6700  -11.3935   24.7227 H   0  0  0  0  0  0  0  0  0  0  0  0  # atno 9566 bound_to 9536
  -23.5872    1.8872   17.3388 H   0  0  0  0  0  0  0  0  0  0  0  0  # atno 10737 bound_to 10719
  -17.3552   -0.1285   14.2917 H   0  0  0  0  0  0  0  0  0  0  0  0  # atno 10918 bound_to 10911
  -16.4179    1.4871   16.8300 H   0  0  0  0  0  0  0  0  0  0  0  0  # atno 10969 bound_to 10948
  -21.7718    4.8185   16.4702 H   0  0  0  0  0  0  0  0  0  0  0  0  # atno 10977 bound_to 10959
  -22.9728   -3.2630   22.2522 H   0  0  0  0  0  0  0  0  0  0  0  0  # atno 11113 bound_to 11093
  -21.6308   -2.1750   25.6269 H   0  0  0  0  0  0  0  0  0  0  0  0  # atno 11173 bound_to 11153
  -19.3873   -1.5355   28.4125 H   0  0  0  0  0  0  0  0  0  0  0  0  # atno 11211 bound_to 11201
  -18.1622    1.3673   31.6340 H   0  0  0  0  0  0  0  0  0  0  0  0  # atno 11249 bound_to 11237
  -17.5157   -1.4035   32.1065 H   0  0  0  0  0  0  0  0  0  0  0  0  # atno 11292 bound_to 11275
  -19.9626   -5.9866   33.2556 H   0  0  0  0  0  0  0  0  0  0  0  0  # atno 11385 bound_to 11366
  -22.7956   -3.8904   31.7272 H   0  0  0  0  0  0  0  0  0  0  0  0  # atno 11493 bound_to 11474
  -18.6325   -9.8398   31.6993 H   0  0  0  0  0  0  0  0  0  0  0  0  # atno 11568 bound_to 11550
  -24.6339    2.9803   27.5109 H   0  0  0  0  0  0  0  0  0  0  0  0  # atno 11673 bound_to 11649
  -25.5059    2.0762   28.5932 H   0  0  0  0  0  0  0  0  0  0  0  0  # atno 11674 bound_to 11649
  -23.9821    2.5967   28.9864 H   0  0  0  0  0  0  0  0  0  0  0  0  # atno 11675 bound_to 11649
   -7.8323    8.9062   25.7248 H   0  0  0  0  0  0  0  0  0  0  0  0  # atno 11686 bound_to 11631
   -8.8324    9.0720   27.0356 H   0  0  0  0  0  0  0  0  0  0  0  0  # atno 11687 bound_to 11631
   -9.1755    7.9454   25.8701 H   0  0  0  0  0  0  0  0  0  0  0  0  # atno 11688 bound_to 11631
  -12.3301   15.7663   22.3083 H   0  0  0  0  0  0  0  0  0  0  0  0  # atno 11826 bound_to 11799
  -17.1728   14.8223   24.9233 H   0  0  0  0  0  0  0  0  0  0  0  0  # atno 11911 bound_to 11856
  -18.3833   15.9526   24.9942 H   0  0  0  0  0  0  0  0  0  0  0  0  # atno 11912 bound_to 11856
  -17.1838   16.0930   23.8584 H   0  0  0  0  0  0  0  0  0  0  0  0  # atno 11913 bound_to 11856
  -28.6825    1.3761   20.6331 H   0  0  0  0  0  0  0  0  0  0  0  0  # atno 12008 bound_to 11984
  -27.7936    2.3706   17.2906 H   0  0  0  0  0  0  0  0  0  0  0  0  # atno 12076 bound_to 12056
  -25.1348    6.3281   12.7516 H   0  0  0  0  0  0  0  0  0  0  0  0  # atno 12159 bound_to 12148
    0.4711   -7.7781   17.6133 H   0  0  0  0  0  0  0  0  0  0  0  0  # atno 15411 bound_to 15403
   -1.5101  -10.6679   20.8640 H   0  0  0  0  0  0  0  0  0  0  0  0  # atno 15475 bound_to 15466
  -13.3771   15.5160   23.5285 LP  0  0  0  0  0  0  0  0  0  0  0  0  # atno 16466 bound_to 11799
  -13.1918   17.0125   22.9017 LP  0  0  0  0  0  0  0  0  0  0  0  0  # atno 16467 bound_to 11799
  -21.6291    5.7469   17.7992 LP  0  0  0  0  0  0  0  0  0  0  0  0  # atno 16468 bound_to 10959
  -22.5967    4.4316   17.8187 LP  0  0  0  0  0  0  0  0  0  0  0  0  # atno 16469 bound_to 10959
  -16.7464    3.2104   15.0245 LP  0  0  0  0  0  0  0  0  0  0  0  0  # atno 16472 bound_to 10886
  -17.9590    3.7268   13.9007 LP  0  0  0  0  0  0  0  0  0  0  0  0  # atno 16473 bound_to 10886
  -17.2327    0.0127   16.3453 LP  0  0  0  0  0  0  0  0  0  0  0  0  # atno 16474 bound_to 10948
  -21.2179    0.1149   20.6052 LP  0  0  0  0  0  0  0  0  0  0  0  0  # atno 16475 bound_to 11004
  -20.0785   -0.5420   21.7322 LP  0  0  0  0  0  0  0  0  0  0  0  0  # atno 16476 bound_to 11004
  -14.7407    1.4236   18.1380 LP  0  0  0  0  0  0  0  0  0  0  0  0  # atno 16477 bound_to 10914
  -13.7702    0.8918   16.8056 LP  0  0  0  0  0  0  0  0  0  0  0  0  # atno 16478 bound_to 10914
  -18.9807   -1.0553   16.8332 LP  0  0  0  0  0  0  0  0  0  0  0  0  # atno 16479 bound_to 10951
  -20.1027   -0.3498   17.9483 LP  0  0  0  0  0  0  0  0  0  0  0  0  # atno 16480 bound_to 10951
  -23.4005    1.2194   18.8109 LP  0  0  0  0  0  0  0  0  0  0  0  0  # atno 16482 bound_to 10719
  -24.8699    1.2353   18.0986 LP  0  0  0  0  0  0  0  0  0  0  0  0  # atno 16483 bound_to 10719
  -25.7409    1.7411   17.1160 LP  0  0  0  0  0  0  0  0  0  0  0  0  # atno 16484 bound_to 11987
  -26.2336    1.2633   18.7063 LP  0  0  0  0  0  0  0  0  0  0  0  0  # atno 16485 bound_to 11987
  -27.7348    5.4841   14.7525 LP  0  0  0  0  0  0  0  0  0  0  0  0  # atno 16486 bound_to 12059
  -26.5034    6.1270   15.7871 LP  0  0  0  0  0  0  0  0  0  0  0  0  # atno 16487 bound_to 12059
  -24.3707    0.0485   21.9262 LP  0  0  0  0  0  0  0  0  0  0  0  0  # atno 16490 bound_to 11046
  -25.0144   -1.1644   22.9820 LP  0  0  0  0  0  0  0  0  0  0  0  0  # atno 16491 bound_to 11046
  -28.2202    4.0051   16.8459 LP  0  0  0  0  0  0  0  0  0  0  0  0  # atno 16492 bound_to 12056
  -17.4759    1.6023   14.0573 LP  0  0  0  0  0  0  0  0  0  0  0  0  # atno 16493 bound_to 10911
  -13.8800    0.7443   13.4102 LP  0  0  0  0  0  0  0  0  0  0  0  0  # atno 16500 bound_to 6108
  -12.4979    1.0217   14.4167 LP  0  0  0  0  0  0  0  0  0  0  0  0  # atno 16501 bound_to 6108
  -13.0240    3.1151   11.2849 LP  0  0  0  0  0  0  0  0  0  0  0  0  # atno 16502 bound_to 6140
   -7.8249    2.5938   15.0941 LP  0  0  0  0  0  0  0  0  0  0  0  0  # atno 16503 bound_to 5921
   -9.2962    2.0270   15.8110 LP  0  0  0  0  0  0  0  0  0  0  0  0  # atno 16504 bound_to 5921
  -10.2360    2.1646   11.4953 LP  0  0  0  0  0  0  0  0  0  0  0  0  # atno 16505 bound_to 6105
   -9.7565    4.8329   11.7024 LP  0  0  0  0  0  0  0  0  0  0  0  0  # atno 16506 bound_to 6059
  -10.3190    4.2023   10.1905 LP  0  0  0  0  0  0  0  0  0  0  0  0  # atno 16507 bound_to 6059
  -10.5767    0.4984   14.2101 LP  0  0  0  0  0  0  0  0  0  0  0  0  # atno 16510 bound_to 5858
   -9.9390    0.2742   12.6154 LP  0  0  0  0  0  0  0  0  0  0  0  0  # atno 16511 bound_to 5858
   -8.8502   -2.4638   15.1502 LP  0  0  0  0  0  0  0  0  0  0  0  0  # atno 16516 bound_to 5918
   -8.0366    0.4827   14.4907 LP  0  0  0  0  0  0  0  0  0  0  0  0  # atno 16517 bound_to 5990
   -5.8565    3.6571   12.3855 LP  0  0  0  0  0  0  0  0  0  0  0  0  # atno 16518 bound_to 5993
   -7.5679    3.9191   12.3373 LP  0  0  0  0  0  0  0  0  0  0  0  0  # atno 16519 bound_to 5993
   -8.2832    1.0053   12.5467 LP  0  0  0  0  0  0  0  0  0  0  0  0  # atno 16520 bound_to 6056
  -20.6266    1.3751   27.7882 LP  0  0  0  0  0  0  0  0  0  0  0  0  # atno 16523 bound_to 11156
  -21.6593    0.3571   26.8410 LP  0  0  0  0  0  0  0  0  0  0  0  0  # atno 16524 bound_to 11156
  -18.8652   -0.2156   27.3834 LP  0  0  0  0  0  0  0  0  0  0  0  0  # atno 16525 bound_to 11201
  -16.2060   -1.2335   30.2692 LP  0  0  0  0  0  0  0  0  0  0  0  0  # atno 16528 bound_to 11204
  -16.6780   -0.6808   28.6970 LP  0  0  0  0  0  0  0  0  0  0  0  0  # atno 16529 bound_to 11204
  -17.6725    0.0623   30.5794 LP  0  0  0  0  0  0  0  0  0  0  0  0  # atno 16530 bound_to 11237
  -21.3735   -0.6310   24.8433 LP  0  0  0  0  0  0  0  0  0  0  0  0  # atno 16533 bound_to 11153
  -21.1426   -4.2945   24.3085 LP  0  0  0  0  0  0  0  0  0  0  0  0  # atno 16540 bound_to 11096
  -19.7844   -3.4348   24.9536 LP  0  0  0  0  0  0  0  0  0  0  0  0  # atno 16541 bound_to 11096
  -15.8185   -2.2099   14.5294 LP  0  0  0  0  0  0  0  0  0  0  0  0  # atno 16544 bound_to 10768
  -17.1844   -1.1610   14.3446 LP  0  0  0  0  0  0  0  0  0  0  0  0  # atno 16545 bound_to 10768
  -14.8688   -2.1079   31.8141 LP  0  0  0  0  0  0  0  0  0  0  0  0  # atno 16552 bound_to 11240
  -14.3796   -1.3586   33.2971 LP  0  0  0  0  0  0  0  0  0  0  0  0  # atno 16553 bound_to 11240
  -16.9958   -0.6444   33.5923 LP  0  0  0  0  0  0  0  0  0  0  0  0  # atno 16554 bound_to 11275
  -19.5392   -4.0767   31.7831 LP  0  0  0  0  0  0  0  0  0  0  0  0  # atno 16558 bound_to 11278
  -19.5966   -2.6487   32.7615 LP  0  0  0  0  0  0  0  0  0  0  0  0  # atno 16559 bound_to 11278
  -19.2135   -9.0480   26.1237 LP  0  0  0  0  0  0  0  0  0  0  0  0  # atno 16561 bound_to 9430
  -21.7376   -5.7850   32.1780 LP  0  0  0  0  0  0  0  0  0  0  0  0  # atno 16562 bound_to 11325
  -20.6612   -6.7628   31.2371 LP  0  0  0  0  0  0  0  0  0  0  0  0  # atno 16563 bound_to 11325
  -21.3382   -3.0151   31.3027 LP  0  0  0  0  0  0  0  0  0  0  0  0  # atno 16564 bound_to 11474
  -19.5343   -5.7425   34.9238 LP  0  0  0  0  0  0  0  0  0  0  0  0  # atno 16565 bound_to 11366
  -21.2337   -9.2003   26.0685 LP  0  0  0  0  0  0  0  0  0  0  0  0  # atno 16566 bound_to 9387
  -21.0417   -8.2922   27.5309 LP  0  0  0  0  0  0  0  0  0  0  0  0  # atno 16567 bound_to 9387
  -19.2957  -11.1310   30.9639 LP  0  0  0  0  0  0  0  0  0  0  0  0  # atno 16568 bound_to 11550
  -19.2421  -11.0546   32.5942 LP  0  0  0  0  0  0  0  0  0  0  0  0  # atno 16569 bound_to 11550
  -19.0567  -12.2365   25.3132 LP  0  0  0  0  0  0  0  0  0  0  0  0  # atno 16570 bound_to 9345
  -18.8123  -10.5826   24.8606 LP  0  0  0  0  0  0  0  0  0  0  0  0  # atno 16571 bound_to 9345
  -13.6664  -12.7845   24.7154 LP  0  0  0  0  0  0  0  0  0  0  0  0  # atno 16572 bound_to 9348
  -14.6944  -13.4299   23.6231 LP  0  0  0  0  0  0  0  0  0  0  0  0  # atno 16573 bound_to 9348
  -19.6514   -8.6091   23.3757 LP  0  0  0  0  0  0  0  0  0  0  0  0  # atno 16574 bound_to 9481
   -7.7482   -3.4234   15.4432 LP  0  0  0  0  0  0  0  0  0  0  0  0  # atno 16579 bound_to 5720
   -9.1913   -4.0084   16.2015 LP  0  0  0  0  0  0  0  0  0  0  0  0  # atno 16580 bound_to 5720
   -1.4957   -9.1270   21.3866 LP  0  0  0  0  0  0  0  0  0  0  0  0  # atno 16587 bound_to 15466
   -2.2056  -10.2907   22.2858 LP  0  0  0  0  0  0  0  0  0  0  0  0  # atno 16588 bound_to 15466
  -10.6714  -10.0923   16.7581 LP  0  0  0  0  0  0  0  0  0  0  0  0  # atno 16591 bound_to 7831
   -3.6626  -13.6665   27.2849 LP  0  0  0  0  0  0  0  0  0  0  0  0  # atno 16592 bound_to 1821
   -3.0139  -13.2898   25.7237 LP  0  0  0  0  0  0  0  0  0  0  0  0  # atno 16593 bound_to 1821
   -7.7995  -13.4108   18.7501 LP  0  0  0  0  0  0  0  0  0  0  0  0  # atno 16594 bound_to 7834
   -7.3395  -12.6962   17.2409 LP  0  0  0  0  0  0  0  0  0  0  0  0  # atno 16595 bound_to 7834
   -8.4963   -7.2847   13.9004 LP  0  0  0  0  0  0  0  0  0  0  0  0  # atno 16596 bound_to 5717
   -7.3966   -5.6749   14.8640 LP  0  0  0  0  0  0  0  0  0  0  0  0  # atno 16597 bound_to 5767
   -0.5508  -12.2450   19.9040 LP  0  0  0  0  0  0  0  0  0  0  0  0  # atno 16600 bound_to 1745
   -0.6449  -13.5089   18.7235 LP  0  0  0  0  0  0  0  0  0  0  0  0  # atno 16601 bound_to 1745
   -0.8357  -13.2777   24.5689 LP  0  0  0  0  0  0  0  0  0  0  0  0  # atno 16602 bound_to 1818
   -4.0393   -7.0124   14.5123 LP  0  0  0  0  0  0  0  0  0  0  0  0  # atno 16603 bound_to 5772
   -3.1264   -5.9238   13.7072 LP  0  0  0  0  0  0  0  0  0  0  0  0  # atno 16604 bound_to 5772
    2.0330   -8.5527   17.4865 LP  0  0  0  0  0  0  0  0  0  0  0  0  # atno 16605 bound_to 15403
    1.3067  -14.8993   21.4723 LP  0  0  0  0  0  0  0  0  0  0  0  0  # atno 16606 bound_to 1791
   -3.9231  -10.8424   13.8296 LP  0  0  0  0  0  0  0  0  0  0  0  0  # atno 16607 bound_to 5617
   -5.3390   -7.8606   13.6810 LP  0  0  0  0  0  0  0  0  0  0  0  0  # atno 16608 bound_to 5620
   -6.7325   -7.3054   12.8150 LP  0  0  0  0  0  0  0  0  0  0  0  0  # atno 16609 bound_to 5620
   -9.0496  -10.4575   15.8170 LP  0  0  0  0  0  0  0  0  0  0  0  0  # atno 16610 bound_to 7788
  -10.2832  -10.2477   14.6194 LP  0  0  0  0  0  0  0  0  0  0  0  0  # atno 16611 bound_to 7788
  -10.9459  -12.5079   17.0791 LP  0  0  0  0  0  0  0  0  0  0  0  0  # atno 16612 bound_to 7874
    1.1030  -15.9166   23.9457 LP  0  0  0  0  0  0  0  0  0  0  0  0  # atno 16613 bound_to 1794
   -0.1453  -16.6472   22.9928 LP  0  0  0  0  0  0  0  0  0  0  0  0  # atno 16614 bound_to 1794
    0.1979  -13.7430   28.5828 LP  0  0  0  0  0  0  0  0  0  0  0  0  # atno 16615 bound_to 1824
   -0.4338  -15.2445   28.6964 LP  0  0  0  0  0  0  0  0  0  0  0  0  # atno 16616 bound_to 1824
   -2.9130  -15.7440   26.2084 LP  0  0  0  0  0  0  0  0  0  0  0  0  # atno 16617 bound_to 1854
  -15.3397  -15.4810   27.3824 LP  0  0  0  0  0  0  0  0  0  0  0  0  # atno 16622 bound_to 9318
  -15.7903  -13.8891   27.8952 LP  0  0  0  0  0  0  0  0  0  0  0  0  # atno 16623 bound_to 9318
  -17.8331  -13.8467   26.2407 LP  0  0  0  0  0  0  0  0  0  0  0  0  # atno 16624 bound_to 9342
  -21.0429   -6.8501   22.7785 LP  0  0  0  0  0  0  0  0  0  0  0  0  # atno 16627 bound_to 9433
  -21.9051   -8.3502   22.8588 LP  0  0  0  0  0  0  0  0  0  0  0  0  # atno 16628 bound_to 9433
  -16.8301   -8.2060   17.2889 LP  0  0  0  0  0  0  0  0  0  0  0  0  # atno 16629 bound_to 9492
  -16.2229   -7.3156   18.5158 LP  0  0  0  0  0  0  0  0  0  0  0  0  # atno 16630 bound_to 9492
  -17.9709  -13.1040   19.4408 LP  0  0  0  0  0  0  0  0  0  0  0  0  # atno 16631 bound_to 7667
  -16.6583  -12.0924   19.9445 LP  0  0  0  0  0  0  0  0  0  0  0  0  # atno 16632 bound_to 7667
  -15.4962  -13.2263   17.2413 LP  0  0  0  0  0  0  0  0  0  0  0  0  # atno 16634 bound_to 7723
  -13.1421  -13.1028   17.0267 LP  0  0  0  0  0  0  0  0  0  0  0  0  # atno 16635 bound_to 7726
  -12.4915  -12.0137   15.8475 LP  0  0  0  0  0  0  0  0  0  0  0  0  # atno 16636 bound_to 7726
  -19.5973   -6.1641   16.3388 LP  0  0  0  0  0  0  0  0  0  0  0  0  # atno 16637 bound_to 10539
  -21.2011   -5.5669   16.6055 LP  0  0  0  0  0  0  0  0  0  0  0  0  # atno 16638 bound_to 10539
   -6.7671  -16.0263   32.0713 LP  0  0  0  0  0  0  0  0  0  0  0  0  # atno 16639 bound_to 1884
   -5.2601  -15.4861   31.7489 LP  0  0  0  0  0  0  0  0  0  0  0  0  # atno 16640 bound_to 1884
  -18.1417  -17.6542   27.0951 LP  0  0  0  0  0  0  0  0  0  0  0  0  # atno 16641 bound_to 9315
   -5.3845  -17.1350   29.8844 LP  0  0  0  0  0  0  0  0  0  0  0  0  # atno 16642 bound_to 1879
   -1.9266  -16.3390   30.4871 LP  0  0  0  0  0  0  0  0  0  0  0  0  # atno 16643 bound_to 1857
   -1.6998  -17.3655   29.1106 LP  0  0  0  0  0  0  0  0  0  0  0  0  # atno 16644 bound_to 1857
  -18.7116  -17.6766   23.3938 LP  0  0  0  0  0  0  0  0  0  0  0  0  # atno 16645 bound_to 7565
  -17.0330  -17.3964   23.0714 LP  0  0  0  0  0  0  0  0  0  0  0  0  # atno 16646 bound_to 7565
  -20.0581  -18.2723   26.3783 LP  0  0  0  0  0  0  0  0  0  0  0  0  # atno 16647 bound_to 9289
  -20.2849  -16.6584   26.9650 LP  0  0  0  0  0  0  0  0  0  0  0  0  # atno 16648 bound_to 9289
  -17.9809  -19.4747   30.9905 LP  0  0  0  0  0  0  0  0  0  0  0  0  # atno 16649 bound_to 9236
  -18.8650  -18.6406   32.2245 LP  0  0  0  0  0  0  0  0  0  0  0  0  # atno 16650 bound_to 9236
  -20.4231  -18.1428   29.3166 LP  0  0  0  0  0  0  0  0  0  0  0  0  # atno 16653 bound_to 9286
  -21.7230  -21.0373   32.0725 LP  0  0  0  0  0  0  0  0  0  0  0  0  # atno 16654 bound_to 9233
  -11.9678  -23.1075   34.5933 LP  0  0  0  0  0  0  0  0  0  0  0  0  # atno 16655 bound_to 3365
  -10.9066  -23.4553   33.2693 LP  0  0  0  0  0  0  0  0  0  0  0  0  # atno 16656 bound_to 3365
   -8.3601  -24.8238   36.8541 LP  0  0  0  0  0  0  0  0  0  0  0  0  # atno 16657 bound_to 3362
   -3.8090  -19.2420   31.1766 LP  0  0  0  0  0  0  0  0  0  0  0  0  # atno 16658 bound_to 1922

> <Gold.Score>
     Fitness  S(hb_ext) S(vdw_ext)  S(hb_int)    S(int)      intcor
     27.09       2.00      18.67       0.00      -0.57      -0.76

> <Gold.Goldscore.Fitness>
27.0917

> <Gold.Goldscore.Internal.Vdw>
-0.6495

> <Gold.Goldscore.Internal.Torsion>
-0.6831

> <Gold.Goldscore.External.Vdw>
18.6653

> <Gold.Goldscore.Internal.HBond>
0.0000

> <Gold.Goldscore.External.HBond>
2.0000

> <Gold.Goldscore.Internal.Correction>
-0.7595

> <Gold.Goldscore.Hbonds>
donor molecule, donor type, donor heavy atom, donor atom, acceptor molecule, acceptor atom, score
      L1  H    10    23       P1 10914  1.00

> <Gold.Goldscore.Internal.Vdw.Weighted>
-0.6495

> <Gold.Goldscore.Internal.Torsion.Weighted>
-0.6831

> <Gold.Goldscore.External.Vdw.Weighted>
25.6648

> <Gold.Goldscore.Internal.HBond.Weighted>
0.0000

> <Gold.Goldscore.External.HBond.Weighted>
2.0000

> <Gold.Goldscore.Internal.Correction.Weighted>
-0.7595

> <Gold.Rescore>
     Score     S(PLP)   S(hbond)     S(cho)   S(metal)  DE(clash)   DE(tors)     intcor
     24.34     -22.55       1.00       0.00       0.00       0.00       0.60       ----

> <Gold.PLP.Fitness>
24.3427

> <Gold.PLP.PLP>
-22.5473

> <Gold.PLP.part.hbond>
-3.0000

> <Gold.PLP.part.metal>
0.0000

> <Gold.PLP.part.buried>
-0.6549

> <Gold.PLP.part.nonpolar>
-20.1474

> <Gold.PLP.part.repulsive>
0.5150

> <Gold.PLP.ligand.clash>
0.0000

> <Gold.PLP.ligand.torsion>
0.6023

> <Gold.PLP.Chemscore.Hbond>
1.0000

> <Gold.PLP.Chemscore.CHOScore>
0.0000

> <Gold.PLP.Chemscore.Metal>
0.0000

> <Gold.Chemscore.Hbonds>
donor molecule, donor type, donor heavy atom, donor atom, acceptor molecule, acceptor atom, score
      L1  H    10    23       P1 10914  0.73

> <Gold.PLP.Chemscore.Internal.Correction>
   9.000000E+99

#       Name:                CT1002167954
#       Creating user name   hitesit
#       Creation time:       Sun Apr 16 22:51:56 2023


#       File generated by GOLD software.
#

@<TRIPOS>MOLECULE
CT1002167954|ligand_prepared|mol2|1|dock4
    29    30     1
SMALL
NO_CHARGES


@<TRIPOS>ATOM
      1 C1         -12.5070   1.2745  21.0532 C.3            1 RES1               0.0000
      2 C2         -12.5034   1.8899  19.6389 C.ar           1 RES1               0.0000
      3 C3         -12.4006   2.4428  22.0289 C.2            1 RES1               0.0000
      4 C4         -13.8044   0.4822  21.1704 C.2            1 RES1               0.0000
      5 C5         -11.3304   0.3061  21.3162 C.3            1 RES1               0.0000
      6 C6         -13.5762   2.6589  19.1980 C.ar           1 RES1               0.0000
      7 C7         -11.4352   1.6998  18.7663 C.ar           1 RES1               0.0000
      8 N8         -13.5216   2.7895  22.7241 N.am           1 RES1               0.0000
      9 O9         -11.3597   3.0753  22.1573 O.2            1 RES1               0.0000
     10 N10        -14.7408   0.9134  22.0731 N.am           1 RES1               0.0000
     11 O11        -14.0312  -0.5019  20.4773 O.2            1 RES1               0.0000
     12 C12        -11.3889  -0.3753  22.6743 C.3            1 RES1               0.0000
     13 C13        -13.5798   3.2201  17.9318 C.ar           1 RES1               0.0000
     14 C14        -11.4409   2.2618  17.5004 C.ar           1 RES1               0.0000
     15 C15        -14.6710   2.0489  22.8334 C.2            1 RES1               0.0000
     16 C16        -12.5121   3.0224  17.0824 C.ar           1 RES1               0.0000
     17 O17        -15.5782   2.3995  23.5826 O.2            1 RES1               0.0000
     18 H18        -11.3253  -0.4638  20.5348 H              1 RES1               0.0000
     19 H19        -10.3895   0.8653  21.2421 H              1 RES1               0.0000
     20 H20        -14.4264   2.8234  19.8516 H              1 RES1               0.0000
     21 H21        -10.5822   1.1043  19.0734 H              1 RES1               0.0000
     22 H22        -13.5035   3.6820  23.2072 H              1 RES1               0.0000
     23 H23        -15.5662   0.3342  22.1893 H              1 RES1               0.0000
     24 H24        -10.5406  -1.0434  22.8075 H              1 RES1               0.0000
     25 H25        -11.3702   0.3601  23.4760 H              1 RES1               0.0000
     26 H26        -12.3005  -0.9611  22.7729 H              1 RES1               0.0000
     27 H27        -14.4259   3.8167  17.6071 H              1 RES1               0.0000
     28 H28        -10.5987   2.1030  16.8350 H              1 RES1               0.0000
     29 H29        -12.5149   3.4625  16.0906 H              1 RES1               0.0000
@<TRIPOS>BOND
    1    1    2 1     
    2    1    3 1     
    3    1    4 1     
    4    1    5 1     
    5    2    6 ar    
    6    2    7 ar    
    7    3    8 1     
    8    3    9 2     
    9    4   10 1     
   10    4   11 2     
   11    5   12 1     
   12    5   18 1     
   13    5   19 1     
   14    6   13 ar    
   15    6   20 1     
   16    7   14 ar    
   17    7   21 1     
   18    8   15 1     
   19    8   22 1     
   20   10   15 1     
   21   10   23 1     
   22   12   24 1     
   23   12   25 1     
   24   12   26 1     
   25   13   16 ar    
   26   13   27 1     
   27   14   16 ar    
   28   14   28 1     
   29   15   17 2     
   30   16   29 1     
@<TRIPOS>SUBSTRUCTURE
      1 RES1           1
@<TRIPOS>SET
DONOR_HYDROGENS      STATIC     ATOMS    <user>   **** ""
2 22 23
ATOM$RED        STATIC     ATOMS    COLORGROUP SYSTEM
2 22 23
@<TRIPOS>COMMENT
> <Gold.Version>
2022.3.0

> <Gold.Id.Protein>
unknown|3mvj_clean|pdb

> <Gold.Protein.RotatedTorsions>
[ 11826 11799 11798 11795 ] final  -27.98 input   60.01 | X-H torsion
[ 11911 11856 11855 11854 ] final    5.76 input   60.02 | X-H torsion
[ 10977 10959 10958 10956 ] final   80.08 input   60.00 | X-H torsion
[ 10969 10948 10949 10950 ] final -176.33 input   32.02 | X-H torsion
[ 10737 10719 10718 10716 ] final   60.99 input   60.01 | X-H torsion
[ 12076 12056 12057 12058 ] final   36.79 input   63.02 | X-H torsion
[ 10918 10911 10912 10913 ] final  -67.13 input  -92.90 | X-H torsion
[ 6164 6140 6141 6142 ] final  166.05 input   39.58 | X-H torsion
[ 6112 6105 6106 6107 ] final  156.21 input  -69.34 | X-H torsion
[ 5955 5918 5919 5920 ] final  146.02 input  125.26 | X-H torsion
[ 6027 5990 5991 5992 ] final  -28.49 input  110.40 | X-H torsion
[ 6075 6056 6057 6058 ] final   78.04 input  107.04 | X-H torsion
[ 11686 11631 11630 11629 ] final  161.76 input   60.02 | X-H torsion
[ 11211 11201 11202 11203 ] final   98.06 input   18.84 | X-H torsion
[ 11249 11237 11238 11239 ] final  104.70 input  111.29 | X-H torsion
[ 11173 11153 11154 11155 ] final  126.34 input   30.50 | X-H torsion
[ 11292 11275 11276 11277 ] final  117.94 input   58.53 | X-H torsion
[ 9451 9430 9431 9432 ] final   -6.42 input  110.06 | X-H torsion
[ 11493 11474 11475 11476 ] final    5.16 input  115.95 | X-H torsion
[ 11385 11366 11367 11368 ] final  148.92 input  117.79 | X-H torsion
[ 11568 11550 11549 11547 ] final -129.66 input   59.97 | X-H torsion
[ 9369 9348 9346 9343 ] final   53.17 input   60.02 | X-H torsion
[ 9511 9481 9482 9483 ] final   -2.99 input   75.78 | X-H torsion
[ 15475 15466 15465 15463 ] final  -90.31 input   60.00 | X-H torsion
[ 7755 7731 7730 7729 ] final  -55.31 input   60.02 | X-H torsion
[ 7846 7831 7832 7833 ] final -174.32 input  113.97 | X-H torsion
[ 5737 5717 5718 5719 ] final   28.26 input  137.93 | X-H torsion
[ 5778 5767 5768 5769 ] final    2.63 input  116.46 | X-H torsion
[ 1839 1818 1819 1820 ] final  -84.18 input   43.70 | X-H torsion
[ 5782 5772 5771 5768 ] final   29.02 input   59.97 | X-H torsion
[ 15411 15403 15404 15405 ] final  117.85 input  102.24 | X-H torsion
[ 1801 1791 1792 1793 ] final -124.29 input  -10.55 | X-H torsion
[ 5632 5617 5618 5619 ] final  -71.06 input   93.34 | X-H torsion
[ 7884 7874 7875 7876 ] final  -34.49 input   68.03 | X-H torsion
[ 1845 1824 1822 1819 ] final  -84.70 input   60.02 | X-H torsion
[ 1864 1854 1855 1856 ] final  -22.60 input   57.50 | X-H torsion
[ 9363 9342 9343 9344 ] final -165.06 input   55.58 | X-H torsion
[ 9519 9492 9491 9489 ] final   27.70 input   60.02 | X-H torsion
[ 7745 7723 7724 7725 ] final  -58.08 input   17.81 | X-H torsion
[ 1896 1884 1883 1880 ] final   90.95 input   60.01 | X-H torsion
[ 9325 9315 9316 9317 ] final  139.56 input  -36.21 | X-H torsion
[ 1892 1879 1880 1881 ] final  -66.50 input   98.21 | X-H torsion
[ 9302 9286 9287 9288 ] final  177.48 input   37.00 | X-H torsion
[ 9263 9233 9234 9235 ] final  127.47 input   95.32 | X-H torsion
[ 3370 3362 3363 3364 ] final  -48.61 input   97.92 | X-H torsion
[ 1947 1922 1923 1924 ] final   67.71 input  104.43 | X-H torsion
[ 12159 12148 12149 12150 ] final  -95.07 input  116.04 | X-H torsion
[ 11673 11649 11648 11647 ] final  137.17 input   59.99 | X-H torsion
[ 12008 11984 11985 11986 ] final  167.74 input   61.04 | X-H torsion
[ 11113 11093 11094 11095 ] final  -70.31 input   39.50 | X-H torsion
[ 7924 7916 7917 7918 ] final  -61.49 input   66.66 | X-H torsion
[ 8650 8630 8631 8632 ] final  -76.66 input   75.31 | X-H torsion
[ 9566 9536 9537 9538 ] final  -79.40 input  103.50 | X-H torsion
[ 16472 10886 10885 10884 ] final   50.47 input    0.00 | X-H torsion
[ 16475 11004 11003 11002 ] final -146.33 input    0.00 | X-H torsion
[ 16477 10914 10913 10912 ] final  -63.36 input    0.00 | X-H torsion
[ 16479 10951 10950 10949 ] final  -42.34 input   -0.00 | X-H torsion
[ 16484 11987 11986 11985 ] final -109.80 input    0.00 | X-H torsion
[ 16486 12059 12058 12057 ] final   48.76 input   -0.00 | X-H torsion
[ 16490 11046 11045 11044 ] final  -45.47 input    0.00 | X-H torsion
[ 16500 6108 6107 6106 ] final  117.73 input    0.00 | X-H torsion
[ 16503 5921 5920 5919 ] final  -12.99 input   -0.00 | X-H torsion
[ 16506 6059 6058 6057 ] final  179.77 input    0.00 | X-H torsion
[ 16510 5858 5857 5856 ] final  -63.76 input    0.00 | X-H torsion
[ 16518 5993 5992 5991 ] final  -86.23 input   -0.00 | X-H torsion
[ 16523 11156 11155 11154 ] final  -59.58 input    0.00 | X-H torsion
[ 16528 11204 11203 11202 ] final   64.18 input    0.00 | X-H torsion
[ 16540 11096 11095 11094 ] final   20.59 input   -0.00 | X-H torsion
[ 16544 10768 10767 10766 ] final  141.67 input   -0.00 | X-H torsion
[ 16552 11240 11239 11238 ] final  171.19 input    0.00 | X-H torsion
[ 16558 11278 11277 11276 ] final  -32.79 input   -0.00 | X-H torsion
[ 16562 11325 11324 11323 ] final   19.25 input   -0.00 | X-H torsion
[ 16566 9387 9386 9385 ] final  -85.58 input   -0.00 | X-H torsion
[ 16570 9345 9344 9343 ] final  -16.05 input    0.00 | X-H torsion
[ 16579 5720 5719 5718 ] final  114.74 input    0.00 | X-H torsion
[ 16592 1821 1820 1819 ] final -177.76 input    0.00 | X-H torsion
[ 16594 7834 7833 7832 ] final -170.68 input    0.00 | X-H torsion
[ 16600 1745 1744 1743 ] final   68.31 input    0.00 | X-H torsion
[ 16608 5620 5619 5618 ] final   26.16 input   -0.00 | X-H torsion
[ 16610 7788 7787 7786 ] final  120.28 input   -0.00 | X-H torsion
[ 16613 1794 1793 1792 ] final  123.08 input   -0.00 | X-H torsion
[ 16622 9318 9317 9316 ] final  163.82 input   -0.00 | X-H torsion
[ 16627 9433 9432 9431 ] final  123.11 input    0.00 | X-H torsion
[ 16631 7667 7666 7665 ] final   75.04 input   -0.00 | X-H torsion
[ 16635 7726 7725 7724 ] final   41.36 input    0.00 | X-H torsion
[ 16637 10539 10538 10537 ] final   31.41 input   -0.00 | X-H torsion
[ 16643 1857 1856 1855 ] final  120.12 input    0.00 | X-H torsion
[ 16645 7565 7564 7563 ] final -141.49 input    0.00 | X-H torsion
[ 16647 9289 9288 9287 ] final   28.78 input    0.00 | X-H torsion
[ 16649 9236 9235 9234 ] final   32.97 input    0.00 | X-H torsion
[ 16655 3365 3364 3363 ] final -177.98 input    0.00 | X-H torsion

> <Gold.Protein.ActiveResidues>
 LEU49   GLY50   THR51   GLY52   SER53   PHE54   VAL57   LEU82   LYS83   GLN84  
 HIS87   GLU127  PHE129  SER130  LEU132  ARG133  ARG134  ILE135  GLY136  ARG137 
 ARG165  ASP166  LEU167  LYS168  PRO169  GLU170  ASN171  LEU172  LEU173  ASP184 
 GLY186  PHE187  TPO197  LEU198  CYS199  GLY200  THR201  PRO202  GLU203  TYR204 
 LEU205  ILE209  ILE210  VAL226  LEU227  TYR229  GLU230  ALA233  GLY234  TYR235 
 PRO236  PRO237  PHE238  PHE239  ALA240  ASP241  GLN242  PRO243  ILE244  GLN245 
 ILE246  TYR247  GLU248  LYS249  ILE250  VAL251  SER252  LYS254  ARG256  PHE257 
 PRO258  SER259  PHE327  ASP328  TYR330 

> <Gold.Protein.RotatedAtoms>
    1.1873  -13.3058   21.0461 H   0  0  0  0  0  0  0  0  0  0  0  0  # atno 1801 bound_to 1791
   -1.3009  -14.7009   23.7029 H   0  0  0  0  0  0  0  0  0  0  0  0  # atno 1839 bound_to 1818
   -0.6152  -13.4489   28.1741 H   0  0  0  0  0  0  0  0  0  0  0  0  # atno 1845 bound_to 1824
   -1.8701  -16.0112   27.5522 H   0  0  0  0  0  0  0  0  0  0  0  0  # atno 1864 bound_to 1854
   -3.7252  -17.0255   29.5721 H   0  0  0  0  0  0  0  0  0  0  0  0  # atno 1892 bound_to 1879
   -6.5694  -15.9939   31.7501 H   0  0  0  0  0  0  0  0  0  0  0  0  # atno 1896 bound_to 1884
   -4.5218  -19.1414   29.7648 H   0  0  0  0  0  0  0  0  0  0  0  0  # atno 1947 bound_to 1922
   -8.3938  -24.8815   36.8007 H   0  0  0  0  0  0  0  0  0  0  0  0  # atno 3370 bound_to 3362
   -4.3651  -10.3183   12.5690 H   0  0  0  0  0  0  0  0  0  0  0  0  # atno 5632 bound_to 5617
   -8.0310   -7.6122   14.2340 H   0  0  0  0  0  0  0  0  0  0  0  0  # atno 5737 bound_to 5717
   -7.3393   -5.7222   14.7751 H   0  0  0  0  0  0  0  0  0  0  0  0  # atno 5778 bound_to 5767
   -4.6216   -5.8344   13.4143 H   0  0  0  0  0  0  0  0  0  0  0  0  # atno 5782 bound_to 5772
   -9.0862   -2.4868   15.2445 H   0  0  0  0  0  0  0  0  0  0  0  0  # atno 5955 bound_to 5918
   -8.0454    0.5351   14.4754 H   0  0  0  0  0  0  0  0  0  0  0  0  # atno 6027 bound_to 5990
   -8.1663    0.5542   12.1719 H   0  0  0  0  0  0  0  0  0  0  0  0  # atno 6075 bound_to 6056
   -9.4592    2.9659   12.2700 H   0  0  0  0  0  0  0  0  0  0  0  0  # atno 6112 bound_to 6105
  -13.1787    2.6810   12.4196 H   0  0  0  0  0  0  0  0  0  0  0  0  # atno 6164 bound_to 6140
  -15.4334  -13.1980   17.1889 H   0  0  0  0  0  0  0  0  0  0  0  0  # atno 7745 bound_to 7723
  -11.5945  -11.6105   23.9803 H   0  0  0  0  0  0  0  0  0  0  0  0  # atno 7755 bound_to 7731
  -12.8967  -12.5022   24.4867 H   0  0  0  0  0  0  0  0  0  0  0  0  # atno 7756 bound_to 7731
  -11.3998  -13.2074   24.3802 H   0  0  0  0  0  0  0  0  0  0  0  0  # atno 7757 bound_to 7731
  -10.7446   -9.2996   17.8884 H   0  0  0  0  0  0  0  0  0  0  0  0  # atno 7846 bound_to 7831
   -9.8640  -12.3162   16.8007 H   0  0  0  0  0  0  0  0  0  0  0  0  # atno 7884 bound_to 7874
   -9.5082  -14.1422   15.4013 H   0  0  0  0  0  0  0  0  0  0  0  0  # atno 7924 bound_to 7916
  -13.1723  -23.4316   23.3796 H   0  0  0  0  0  0  0  0  0  0  0  0  # atno 8650 bound_to 8630
  -21.7061  -21.0217   32.1032 H   0  0  0  0  0  0  0  0  0  0  0  0  # atno 9263 bound_to 9233
  -19.7166  -19.4886   30.0291 H   0  0  0  0  0  0  0  0  0  0  0  0  # atno 9302 bound_to 9286
  -18.4666  -17.2922   27.3882 H   0  0  0  0  0  0  0  0  0  0  0  0  # atno 9325 bound_to 9315
  -16.5114  -14.3999   25.7311 H   0  0  0  0  0  0  0  0  0  0  0  0  # atno 9363 bound_to 9342
  -15.1268  -13.9305   24.4802 H   0  0  0  0  0  0  0  0  0  0  0  0  # atno 9369 bound_to 9348
  -18.9414   -9.2714   25.7483 H   0  0  0  0  0  0  0  0  0  0  0  0  # atno 9451 bound_to 9430
  -20.0808   -9.6465   24.5512 H   0  0  0  0  0  0  0  0  0  0  0  0  # atno 9511 bound_to 9481
  -16.1652   -7.4174   18.4565 H   0  0  0  0  0  0  0  0  0  0  0  0  # atno 9519 bound_to 9492
  -21.3877  -11.4385   23.5341 H   0  0  0  0  0  0  0  0  0  0  0  0  # atno 9566 bound_to 9536
  -23.4076    1.8739   17.4492 H   0  0  0  0  0  0  0  0  0  0  0  0  # atno 10737 bound_to 10719
  -17.4357   -0.0933   14.4526 H   0  0  0  0  0  0  0  0  0  0  0  0  # atno 10918 bound_to 10911
  -16.1122    1.2112   16.8116 H   0  0  0  0  0  0  0  0  0  0  0  0  # atno 10969 bound_to 10948
  -22.0048    5.4412   18.1855 H   0  0  0  0  0  0  0  0  0  0  0  0  # atno 10977 bound_to 10959
  -22.3395   -1.5885   22.2697 H   0  0  0  0  0  0  0  0  0  0  0  0  # atno 11113 bound_to 11093
  -21.1229   -1.1522   24.4590 H   0  0  0  0  0  0  0  0  0  0  0  0  # atno 11173 bound_to 11153
  -19.6135   -1.4399   28.3604 H   0  0  0  0  0  0  0  0  0  0  0  0  # atno 11211 bound_to 11201
  -18.2649    1.1591   31.7748 H   0  0  0  0  0  0  0  0  0  0  0  0  # atno 11249 bound_to 11237
  -17.5973   -0.6686   33.5941 H   0  0  0  0  0  0  0  0  0  0  0  0  # atno 11292 bound_to 11275
  -19.4928   -6.1654   34.8610 H   0  0  0  0  0  0  0  0  0  0  0  0  # atno 11385 bound_to 11366
  -22.7101   -3.9969   31.7561 H   0  0  0  0  0  0  0  0  0  0  0  0  # atno 11493 bound_to 11474
  -19.4128  -11.3789   32.2531 H   0  0  0  0  0  0  0  0  0  0  0  0  # atno 11568 bound_to 11550
  -23.8956    3.0175   28.1640 H   0  0  0  0  0  0  0  0  0  0  0  0  # atno 11673 bound_to 11649
  -25.4147    2.5238   27.7192 H   0  0  0  0  0  0  0  0  0  0  0  0  # atno 11674 bound_to 11649
  -24.8122    2.1116   29.2074 H   0  0  0  0  0  0  0  0  0  0  0  0  # atno 11675 bound_to 11649
   -9.3681    8.4497   26.7671 H   0  0  0  0  0  0  0  0  0  0  0  0  # atno 11686 bound_to 11631
   -8.4814    8.1520   25.3993 H   0  0  0  0  0  0  0  0  0  0  0  0  # atno 11687 bound_to 11631
   -7.9911    9.3222   26.4650 H   0  0  0  0  0  0  0  0  0  0  0  0  # atno 11688 bound_to 11631
  -12.4888   16.5661   22.2556 H   0  0  0  0  0  0  0  0  0  0  0  0  # atno 11826 bound_to 11799
  -17.1140   14.8324   24.8649 H   0  0  0  0  0  0  0  0  0  0  0  0  # atno 11911 bound_to 11856
  -18.3797   15.8874   25.0463 H   0  0  0  0  0  0  0  0  0  0  0  0  # atno 11912 bound_to 11856
  -17.2463   16.1481   23.8648 H   0  0  0  0  0  0  0  0  0  0  0  0  # atno 11913 bound_to 11856
  -29.0142    1.3564   20.5290 H   0  0  0  0  0  0  0  0  0  0  0  0  # atno 12008 bound_to 11984
  -28.2656    4.0016   16.8133 H   0  0  0  0  0  0  0  0  0  0  0  0  # atno 12076 bound_to 12056
  -25.5074    6.5187   13.1755 H   0  0  0  0  0  0  0  0  0  0  0  0  # atno 12159 bound_to 12148
    0.5144   -8.3639   17.9815 H   0  0  0  0  0  0  0  0  0  0  0  0  # atno 15411 bound_to 15403
   -1.5190   -9.1226   21.4368 H   0  0  0  0  0  0  0  0  0  0  0  0  # atno 15475 bound_to 15466
  -12.8263   15.1715   23.0230 LP  0  0  0  0  0  0  0  0  0  0  0  0  # atno 16466 bound_to 11799
  -13.5826   16.5512   23.4603 LP  0  0  0  0  0  0  0  0  0  0  0  0  # atno 16467 bound_to 11799
  -22.5179    4.2210   17.2388 LP  0  0  0  0  0  0  0  0  0  0  0  0  # atno 16468 bound_to 10959
  -21.4732    5.3302   16.6514 LP  0  0  0  0  0  0  0  0  0  0  0  0  # atno 16469 bound_to 10959
  -18.0719    3.5803   14.9319 LP  0  0  0  0  0  0  0  0  0  0  0  0  # atno 16472 bound_to 10886
  -16.6335    3.3568   13.9933 LP  0  0  0  0  0  0  0  0  0  0  0  0  # atno 16473 bound_to 10886
  -17.5262    0.2775   16.3629 LP  0  0  0  0  0  0  0  0  0  0  0  0  # atno 16474 bound_to 10948
  -21.3391   -0.4342   21.6419 LP  0  0  0  0  0  0  0  0  0  0  0  0  # atno 16475 bound_to 11004
  -19.9573    0.0071   20.6955 LP  0  0  0  0  0  0  0  0  0  0  0  0  # atno 16476 bound_to 11004
  -13.8879    0.4611   17.1116 LP  0  0  0  0  0  0  0  0  0  0  0  0  # atno 16477 bound_to 10914
  -14.6230    1.8542   17.8320 LP  0  0  0  0  0  0  0  0  0  0  0  0  # atno 16478 bound_to 10914
  -19.5318    0.1627   17.3548 LP  0  0  0  0  0  0  0  0  0  0  0  0  # atno 16479 bound_to 10951
  -19.5516   -1.5677   17.4267 LP  0  0  0  0  0  0  0  0  0  0  0  0  # atno 16480 bound_to 10951
  -23.5808    1.1402   18.8912 LP  0  0  0  0  0  0  0  0  0  0  0  0  # atno 16482 bound_to 10719
  -24.8704    1.3279   17.9072 LP  0  0  0  0  0  0  0  0  0  0  0  0  # atno 16483 bound_to 10719
  -25.5013    2.2188   17.8923 LP  0  0  0  0  0  0  0  0  0  0  0  0  # atno 16484 bound_to 11987
  -26.4733    0.7857   17.9299 LP  0  0  0  0  0  0  0  0  0  0  0  0  # atno 16485 bound_to 11987
  -27.3560    5.5741   16.0700 LP  0  0  0  0  0  0  0  0  0  0  0  0  # atno 16486 bound_to 12059
  -26.8822    6.0370   14.4696 LP  0  0  0  0  0  0  0  0  0  0  0  0  # atno 16487 bound_to 12059
  -24.4050    0.0299   21.8869 LP  0  0  0  0  0  0  0  0  0  0  0  0  # atno 16490 bound_to 11046
  -24.9800   -1.1458   23.0213 LP  0  0  0  0  0  0  0  0  0  0  0  0  # atno 16491 bound_to 11046
  -27.7578    2.4070   17.3136 LP  0  0  0  0  0  0  0  0  0  0  0  0  # atno 16492 bound_to 12056
  -17.3981    1.5682   13.9020 LP  0  0  0  0  0  0  0  0  0  0  0  0  # atno 16493 bound_to 10911
  -13.9513    1.2939   13.9214 LP  0  0  0  0  0  0  0  0  0  0  0  0  # atno 16500 bound_to 6108
  -12.4266    0.4721   13.9054 LP  0  0  0  0  0  0  0  0  0  0  0  0  # atno 16501 bound_to 6108
  -12.2487    2.1951   11.0216 LP  0  0  0  0  0  0  0  0  0  0  0  0  # atno 16502 bound_to 6140
   -9.2988    2.0269   15.8056 LP  0  0  0  0  0  0  0  0  0  0  0  0  # atno 16503 bound_to 5921
   -7.8224    2.5939   15.0995 LP  0  0  0  0  0  0  0  0  0  0  0  0  # atno 16504 bound_to 5921
  -10.2054    1.3824   12.2476 LP  0  0  0  0  0  0  0  0  0  0  0  0  # atno 16505 bound_to 6105
  -10.6524    4.5592   11.5552 LP  0  0  0  0  0  0  0  0  0  0  0  0  # atno 16506 bound_to 6059
   -9.4232    4.4760   10.3378 LP  0  0  0  0  0  0  0  0  0  0  0  0  # atno 16507 bound_to 6059
   -9.7407    0.3625   12.7185 LP  0  0  0  0  0  0  0  0  0  0  0  0  # atno 16510 bound_to 5858
  -10.7750    0.4101   14.1070 LP  0  0  0  0  0  0  0  0  0  0  0  0  # atno 16511 bound_to 5858
   -9.3026   -1.2698   14.0109 LP  0  0  0  0  0  0  0  0  0  0  0  0  # atno 16516 bound_to 5918
   -6.6293   -0.4304   14.8455 LP  0  0  0  0  0  0  0  0  0  0  0  0  # atno 16517 bound_to 5990
   -7.3265    3.9592   12.9474 LP  0  0  0  0  0  0  0  0  0  0  0  0  # atno 16518 bound_to 5993
   -6.0979    3.6170   11.7754 LP  0  0  0  0  0  0  0  0  0  0  0  0  # atno 16519 bound_to 5993
   -6.9063    1.7522   12.0803 LP  0  0  0  0  0  0  0  0  0  0  0  0  # atno 16520 bound_to 6056
  -20.8017    1.2274   26.6054 LP  0  0  0  0  0  0  0  0  0  0  0  0  # atno 16523 bound_to 11156
  -21.4842    0.5047   28.0238 LP  0  0  0  0  0  0  0  0  0  0  0  0  # atno 16524 bound_to 11156
  -18.6483   -0.3073   27.4333 LP  0  0  0  0  0  0  0  0  0  0  0  0  # atno 16525 bound_to 11201
  -16.3591   -0.3870   28.8365 LP  0  0  0  0  0  0  0  0  0  0  0  0  # atno 16528 bound_to 11204
  -16.5249   -1.5272   30.1297 LP  0  0  0  0  0  0  0  0  0  0  0  0  # atno 16529 bound_to 11204
  -17.5723    0.2654   30.4420 LP  0  0  0  0  0  0  0  0  0  0  0  0  # atno 16530 bound_to 11237
  -21.8651   -1.6209   25.9736 LP  0  0  0  0  0  0  0  0  0  0  0  0  # atno 16533 bound_to 11153
  -20.9378   -4.1103   23.9494 LP  0  0  0  0  0  0  0  0  0  0  0  0  # atno 16540 bound_to 11096
  -19.9892   -3.6190   25.3127 LP  0  0  0  0  0  0  0  0  0  0  0  0  # atno 16541 bound_to 11096
  -15.8986   -2.1484   14.0221 LP  0  0  0  0  0  0  0  0  0  0  0  0  # atno 16544 bound_to 10768
  -17.1044   -1.2225   14.8519 LP  0  0  0  0  0  0  0  0  0  0  0  0  # atno 16545 bound_to 10768
  -14.9569   -2.3677   33.0421 LP  0  0  0  0  0  0  0  0  0  0  0  0  # atno 16552 bound_to 11240
  -14.2914   -1.0987   32.0691 LP  0  0  0  0  0  0  0  0  0  0  0  0  # atno 16553 bound_to 11240
  -16.9162   -1.3613   32.1412 LP  0  0  0  0  0  0  0  0  0  0  0  0  # atno 16554 bound_to 11275
  -19.6854   -2.7503   32.8732 LP  0  0  0  0  0  0  0  0  0  0  0  0  # atno 16558 bound_to 11278
  -19.4504   -3.9752   31.6714 LP  0  0  0  0  0  0  0  0  0  0  0  0  # atno 16559 bound_to 11278
  -18.0766   -7.8819   26.3666 LP  0  0  0  0  0  0  0  0  0  0  0  0  # atno 16561 bound_to 9430
  -20.6180   -6.6275   31.1719 LP  0  0  0  0  0  0  0  0  0  0  0  0  # atno 16562 bound_to 11325
  -21.7808   -5.9203   32.2432 LP  0  0  0  0  0  0  0  0  0  0  0  0  # atno 16563 bound_to 11325
  -21.4204   -2.9127   31.2749 LP  0  0  0  0  0  0  0  0  0  0  0  0  # atno 16564 bound_to 11474
  -20.0061   -5.5629   33.3120 LP  0  0  0  0  0  0  0  0  0  0  0  0  # atno 16565 bound_to 11366
  -21.2361   -9.4731   26.3392 LP  0  0  0  0  0  0  0  0  0  0  0  0  # atno 16566 bound_to 9387
  -21.0393   -8.0194   27.2602 LP  0  0  0  0  0  0  0  0  0  0  0  0  # atno 16567 bound_to 9387
  -18.6725   -9.9312   32.1899 LP  0  0  0  0  0  0  0  0  0  0  0  0  # atno 16568 bound_to 11550
  -19.0794  -10.7043   30.8103 LP  0  0  0  0  0  0  0  0  0  0  0  0  # atno 16569 bound_to 11550
  -18.4806  -11.8854   24.5234 LP  0  0  0  0  0  0  0  0  0  0  0  0  # atno 16570 bound_to 9345
  -19.3884  -10.9337   25.6504 LP  0  0  0  0  0  0  0  0  0  0  0  0  # atno 16571 bound_to 9345
  -13.9838  -13.1537   25.3392 LP  0  0  0  0  0  0  0  0  0  0  0  0  # atno 16572 bound_to 9348
  -14.0777  -12.9443   23.7224 LP  0  0  0  0  0  0  0  0  0  0  0  0  # atno 16573 bound_to 9348
  -19.0951   -8.9116   23.3066 LP  0  0  0  0  0  0  0  0  0  0  0  0  # atno 16574 bound_to 9481
   -7.9854   -3.5860   16.5284 LP  0  0  0  0  0  0  0  0  0  0  0  0  # atno 16579 bound_to 5720
   -8.9541   -3.8458   15.1163 LP  0  0  0  0  0  0  0  0  0  0  0  0  # atno 16580 bound_to 5720
   -2.2053  -10.3425   22.2666 LP  0  0  0  0  0  0  0  0  0  0  0  0  # atno 16587 bound_to 15466
   -1.4871  -10.6316   20.8289 LP  0  0  0  0  0  0  0  0  0  0  0  0  # atno 16588 bound_to 15466
  -11.2316  -10.8522   17.2298 LP  0  0  0  0  0  0  0  0  0  0  0  0  # atno 16591 bound_to 7831
   -3.9364  -13.8469   27.0106 LP  0  0  0  0  0  0  0  0  0  0  0  0  # atno 16592 bound_to 1821
   -2.7402  -13.1094   25.9980 LP  0  0  0  0  0  0  0  0  0  0  0  0  # atno 16593 bound_to 1821
   -7.8574  -13.7452   17.5611 LP  0  0  0  0  0  0  0  0  0  0  0  0  # atno 16594 bound_to 7834
   -7.2816  -12.3618   18.4299 LP  0  0  0  0  0  0  0  0  0  0  0  0  # atno 16595 bound_to 7834
   -9.6872   -8.0555   14.6112 LP  0  0  0  0  0  0  0  0  0  0  0  0  # atno 16596 bound_to 5717
   -6.5470   -6.2357   16.2489 LP  0  0  0  0  0  0  0  0  0  0  0  0  # atno 16597 bound_to 5767
   -0.7223  -13.5628   18.7998 LP  0  0  0  0  0  0  0  0  0  0  0  0  # atno 16600 bound_to 1745
   -0.4734  -12.1911   19.8277 LP  0  0  0  0  0  0  0  0  0  0  0  0  # atno 16601 bound_to 1745
   -0.5877  -13.3438   24.5455 LP  0  0  0  0  0  0  0  0  0  0  0  0  # atno 16602 bound_to 1818
   -4.2223   -7.0013   14.4760 LP  0  0  0  0  0  0  0  0  0  0  0  0  # atno 16603 bound_to 5772
   -3.0627   -6.0522   13.8271 LP  0  0  0  0  0  0  0  0  0  0  0  0  # atno 16604 bound_to 5772
    1.9907   -7.9814   17.1274 LP  0  0  0  0  0  0  0  0  0  0  0  0  # atno 16605 bound_to 15403
    0.9741  -15.0435   21.0392 LP  0  0  0  0  0  0  0  0  0  0  0  0  # atno 16606 bound_to 1791
   -3.9003   -9.9344   14.2136 LP  0  0  0  0  0  0  0  0  0  0  0  0  # atno 16607 bound_to 5617
   -5.2529   -7.9474   13.1819 LP  0  0  0  0  0  0  0  0  0  0  0  0  # atno 16608 bound_to 5620
   -6.8186   -7.2186   13.3142 LP  0  0  0  0  0  0  0  0  0  0  0  0  # atno 16609 bound_to 5620
   -9.1360   -9.7737   15.5837 LP  0  0  0  0  0  0  0  0  0  0  0  0  # atno 16610 bound_to 7788
  -10.1968  -10.9315   14.8527 LP  0  0  0  0  0  0  0  0  0  0  0  0  # atno 16611 bound_to 7788
  -10.5926  -12.7405   18.3275 LP  0  0  0  0  0  0  0  0  0  0  0  0  # atno 16612 bound_to 7874
    0.9892  -15.9826   24.1016 LP  0  0  0  0  0  0  0  0  0  0  0  0  # atno 16613 bound_to 1794
   -0.0315  -16.5813   22.8368 LP  0  0  0  0  0  0  0  0  0  0  0  0  # atno 16614 bound_to 1794
    0.2877  -14.6280   28.8392 LP  0  0  0  0  0  0  0  0  0  0  0  0  # atno 16615 bound_to 1824
   -1.2196  -14.9543   28.3024 LP  0  0  0  0  0  0  0  0  0  0  0  0  # atno 16616 bound_to 1824
   -2.9287  -16.0705   26.1536 LP  0  0  0  0  0  0  0  0  0  0  0  0  # atno 16617 bound_to 1854
  -15.2245  -13.9519   27.3282 LP  0  0  0  0  0  0  0  0  0  0  0  0  # atno 16622 bound_to 9318
  -15.9055  -15.4183   27.9494 LP  0  0  0  0  0  0  0  0  0  0  0  0  # atno 16623 bound_to 9318
  -18.0374  -13.5898   25.4547 LP  0  0  0  0  0  0  0  0  0  0  0  0  # atno 16624 bound_to 9342
  -21.0976   -7.8442   22.0778 LP  0  0  0  0  0  0  0  0  0  0  0  0  # atno 16627 bound_to 9433
  -21.8503   -7.3561   23.5595 LP  0  0  0  0  0  0  0  0  0  0  0  0  # atno 16628 bound_to 9433
  -17.6529   -6.9195   18.0239 LP  0  0  0  0  0  0  0  0  0  0  0  0  # atno 16629 bound_to 9492
  -16.9504   -8.1726   17.2476 LP  0  0  0  0  0  0  0  0  0  0  0  0  # atno 16630 bound_to 9492
  -17.0406  -13.1378   20.3121 LP  0  0  0  0  0  0  0  0  0  0  0  0  # atno 16631 bound_to 7667
  -17.5885  -12.0585   19.0732 LP  0  0  0  0  0  0  0  0  0  0  0  0  # atno 16632 bound_to 7667
  -15.0789  -13.5114   18.8779 LP  0  0  0  0  0  0  0  0  0  0  0  0  # atno 16634 bound_to 7723
  -13.5858  -12.9424   16.3315 LP  0  0  0  0  0  0  0  0  0  0  0  0  # atno 16635 bound_to 7726
  -12.0479  -12.1742   16.5428 LP  0  0  0  0  0  0  0  0  0  0  0  0  # atno 16636 bound_to 7726
  -20.6481   -5.6782   17.2802 LP  0  0  0  0  0  0  0  0  0  0  0  0  # atno 16637 bound_to 10539
  -20.1502   -6.0529   15.6641 LP  0  0  0  0  0  0  0  0  0  0  0  0  # atno 16638 bound_to 10539
   -5.0980  -15.3808   32.0762 LP  0  0  0  0  0  0  0  0  0  0  0  0  # atno 16639 bound_to 1884
   -6.1658  -15.6359   33.2851 LP  0  0  0  0  0  0  0  0  0  0  0  0  # atno 16640 bound_to 1884
  -16.7581  -16.9997   27.6446 LP  0  0  0  0  0  0  0  0  0  0  0  0  # atno 16641 bound_to 9315
   -5.3827  -16.7291   30.0454 LP  0  0  0  0  0  0  0  0  0  0  0  0  # atno 16642 bound_to 1879
   -1.9199  -16.3123   30.4674 LP  0  0  0  0  0  0  0  0  0  0  0  0  # atno 16643 bound_to 1857
   -1.7065  -17.3922   29.1302 LP  0  0  0  0  0  0  0  0  0  0  0  0  # atno 16644 bound_to 1857
  -17.6096  -16.7796   22.9039 LP  0  0  0  0  0  0  0  0  0  0  0  0  # atno 16645 bound_to 7565
  -18.1350  -18.2934   23.5613 LP  0  0  0  0  0  0  0  0  0  0  0  0  # atno 16646 bound_to 7565
  -20.5736  -17.7056   27.4001 LP  0  0  0  0  0  0  0  0  0  0  0  0  # atno 16647 bound_to 9289
  -19.7694  -17.2251   25.9432 LP  0  0  0  0  0  0  0  0  0  0  0  0  # atno 16648 bound_to 9289
  -18.8213  -19.6536   32.0935 LP  0  0  0  0  0  0  0  0  0  0  0  0  # atno 16649 bound_to 9236
  -18.0246  -18.4618   31.1215 LP  0  0  0  0  0  0  0  0  0  0  0  0  # atno 16650 bound_to 9236
  -20.5426  -18.4072   28.9318 LP  0  0  0  0  0  0  0  0  0  0  0  0  # atno 16653 bound_to 9286
  -21.2339  -21.2138   30.4298 LP  0  0  0  0  0  0  0  0  0  0  0  0  # atno 16654 bound_to 9233
  -11.8966  -24.0152   33.9088 LP  0  0  0  0  0  0  0  0  0  0  0  0  # atno 16655 bound_to 3365
  -10.9778  -22.5476   33.9538 LP  0  0  0  0  0  0  0  0  0  0  0  0  # atno 16656 bound_to 3365
   -7.1358  -24.0369   35.9295 LP  0  0  0  0  0  0  0  0  0  0  0  0  # atno 16657 bound_to 3362
   -4.4404  -19.4454   31.4890 LP  0  0  0  0  0  0  0  0  0  0  0  0  # atno 16658 bound_to 1922

> <Gold.Score>
     Fitness  S(hb_ext) S(vdw_ext)  S(hb_int)    S(int)      intcor
     26.40       0.00      19.20       0.00      -0.00      -0.76

> <Gold.Goldscore.Fitness>
26.4010

> <Gold.Goldscore.Internal.Vdw>
-0.3714

> <Gold.Goldscore.Internal.Torsion>
-0.3930

> <Gold.Goldscore.External.Vdw>
19.2043

> <Gold.Goldscore.Internal.HBond>
0.0000

> <Gold.Goldscore.External.HBond>
0.0000

> <Gold.Goldscore.Internal.Correction>
-0.7595

> <Gold.Goldscore.Internal.Vdw.Weighted>
-0.3714

> <Gold.Goldscore.Internal.Torsion.Weighted>
-0.3930

> <Gold.Goldscore.External.Vdw.Weighted>
26.4059

> <Gold.Goldscore.Internal.HBond.Weighted>
0.0000

> <Gold.Goldscore.External.HBond.Weighted>
0.0000

> <Gold.Goldscore.Internal.Correction.Weighted>
-0.7595

> <Gold.Rescore>
     Score     S(PLP)   S(hbond)     S(cho)   S(metal)  DE(clash)   DE(tors)     intcor
     23.96     -24.23       0.00       0.00       0.00       0.00       0.14       ----

> <Gold.PLP.Fitness>
23.9584

> <Gold.PLP.PLP>
-24.2337

> <Gold.PLP.part.hbond>
-0.8289

> <Gold.PLP.part.metal>
0.0000

> <Gold.PLP.part.buried>
-3.2220

> <Gold.PLP.part.nonpolar>
-20.5172

> <Gold.PLP.part.repulsive>
0.1891

> <Gold.PLP.ligand.clash>
0.0000

> <Gold.PLP.ligand.torsion>
0.1377

> <Gold.PLP.Chemscore.Hbond>
0.0000

> <Gold.PLP.Chemscore.CHOScore>
0.0000

> <Gold.PLP.Chemscore.Metal>
0.0000

> <Gold.PLP.Chemscore.Internal.Correction>
   9.000000E+99

#       Name:                CT1002167954
#       Creating user name   hitesit
#       Creation time:       Sun Apr 16 22:52:08 2023


#       File generated by GOLD software.
#

@<TRIPOS>MOLECULE
CT1002167954|ligand_prepared|mol2|1|dock9
    29    30     1
SMALL
NO_CHARGES


@<TRIPOS>ATOM
      1 C1         -11.6601  -6.6728  24.9167 C.3            1 RES1               0.0000
      2 C2         -12.7387  -6.3348  23.8673 C.ar           1 RES1               0.0000
      3 C3         -12.1128  -7.9616  25.5966 C.2            1 RES1               0.0000
      4 C4         -10.3468  -6.8006  24.1526 C.2            1 RES1               0.0000
      5 C5         -11.4788  -5.5837  25.9995 C.3            1 RES1               0.0000
      6 C6         -13.0665  -5.0112  23.5891 C.ar           1 RES1               0.0000
      7 C7         -13.4114  -7.3339  23.1688 C.ar           1 RES1               0.0000
      8 N8         -11.4480  -9.1098  25.2808 N.am           1 RES1               0.0000
      9 O9         -13.0640  -7.9770  26.3680 O.2            1 RES1               0.0000
     10 N10         -9.7477  -8.0321  24.1072 N.am           1 RES1               0.0000
     11 O11         -9.8341  -5.8496  23.5756 O.2            1 RES1               0.0000
     12 C12        -10.6501  -6.0361  27.1914 C.3            1 RES1               0.0000
     13 C13        -14.0298  -4.6976  22.6447 C.ar           1 RES1               0.0000
     14 C14        -14.3746  -7.0180  22.2249 C.ar           1 RES1               0.0000
     15 C15        -10.2544  -9.1991  24.6107 C.2            1 RES1               0.0000
     16 C16        -14.6841  -5.7006  21.9617 C.ar           1 RES1               0.0000
     17 O17         -9.6823 -10.2778  24.4826 O.2            1 RES1               0.0000
     18 H18        -10.9954  -4.7104  25.5445 H              1 RES1               0.0000
     19 H19        -12.4684  -5.2716  26.3556 H              1 RES1               0.0000
     20 H20        -12.5639  -4.2085  24.1184 H              1 RES1               0.0000
     21 H21        -13.1851  -8.3773  23.3602 H              1 RES1               0.0000
     22 H22        -11.8781  -9.9826  25.5695 H              1 RES1               0.0000
     23 H23         -8.8397  -8.0837  23.6563 H              1 RES1               0.0000
     24 H24        -10.5539  -5.2346  27.9208 H              1 RES1               0.0000
     25 H25        -11.1150  -6.8879  27.6834 H              1 RES1               0.0000
     26 H26         -9.6508  -6.3300  26.8771 H              1 RES1               0.0000
     27 H27        -14.2707  -3.6592  22.4422 H              1 RES1               0.0000
     28 H28        -14.8875  -7.8106  21.6902 H              1 RES1               0.0000
     29 H29        -15.4384  -5.4546  21.2216 H              1 RES1               0.0000
@<TRIPOS>BOND
    1    1    2 1     
    2    1    3 1     
    3    1    4 1     
    4    1    5 1     
    5    2    6 ar    
    6    2    7 ar    
    7    3    8 1     
    8    3    9 2     
    9    4   10 1     
   10    4   11 2     
   11    5   12 1     
   12    5   18 1     
   13    5   19 1     
   14    6   13 ar    
   15    6   20 1     
   16    7   14 ar    
   17    7   21 1     
   18    8   15 1     
   19    8   22 1     
   20   10   15 1     
   21   10   23 1     
   22   12   24 1     
   23   12   25 1     
   24   12   26 1     
   25   13   16 ar    
   26   13   27 1     
   27   14   16 ar    
   28   14   28 1     
   29   15   17 2     
   30   16   29 1     
@<TRIPOS>SUBSTRUCTURE
      1 RES1           1
@<TRIPOS>SET
DONOR_HYDROGENS      STATIC     ATOMS    <user>   **** ""
2 22 23
ATOM$RED        STATIC     ATOMS    COLORGROUP SYSTEM
2 22 23
@<TRIPOS>COMMENT
> <Gold.Version>
2022.3.0

> <Gold.Id.Protein>
unknown|3mvj_clean|pdb

> <Gold.Protein.RotatedTorsions>
[ 11826 11799 11798 11795 ] final   79.69 input   60.01 | X-H torsion
[ 11911 11856 11855 11854 ] final  164.08 input   60.02 | X-H torsion
[ 10977 10959 10958 10956 ] final   -6.10 input   60.00 | X-H torsion
[ 10969 10948 10949 10950 ] final  113.58 input   32.02 | X-H torsion
[ 10737 10719 10718 10716 ] final   90.95 input   60.01 | X-H torsion
[ 12076 12056 12057 12058 ] final -169.01 input   63.02 | X-H torsion
[ 10918 10911 10912 10913 ] final  -15.56 input  -92.90 | X-H torsion
[ 6164 6140 6141 6142 ] final -112.30 input   39.58 | X-H torsion
[ 6112 6105 6106 6107 ] final   15.04 input  -69.34 | X-H torsion
[ 5955 5918 5919 5920 ] final  151.98 input  125.26 | X-H torsion
[ 6027 5990 5991 5992 ] final -155.39 input  110.40 | X-H torsion
[ 6075 6056 6057 6058 ] final  -68.74 input  107.04 | X-H torsion
[ 11686 11631 11630 11629 ] final   24.87 input   60.02 | X-H torsion
[ 11211 11201 11202 11203 ] final  -96.47 input   18.84 | X-H torsion
[ 11249 11237 11238 11239 ] final  139.41 input  111.29 | X-H torsion
[ 11173 11153 11154 11155 ] final   75.50 input   30.50 | X-H torsion
[ 11292 11275 11276 11277 ] final   79.63 input   58.53 | X-H torsion
[ 9451 9430 9431 9432 ] final -136.04 input  110.06 | X-H torsion
[ 11493 11474 11475 11476 ] final  153.91 input  115.95 | X-H torsion
[ 11385 11366 11367 11368 ] final   69.98 input  117.79 | X-H torsion
[ 11568 11550 11549 11547 ] final   41.69 input   59.97 | X-H torsion
[ 9369 9348 9346 9343 ] final  159.86 input   60.02 | X-H torsion
[ 9511 9481 9482 9483 ] final -147.81 input   75.78 | X-H torsion
[ 15475 15466 15465 15463 ] final  161.25 input   60.00 | X-H torsion
[ 7755 7731 7730 7729 ] final   47.37 input   60.02 | X-H torsion
[ 7846 7831 7832 7833 ] final -144.78 input  113.97 | X-H torsion
[ 5737 5717 5718 5719 ] final  -29.41 input  137.93 | X-H torsion
[ 5778 5767 5768 5769 ] final  -19.95 input  116.46 | X-H torsion
[ 1839 1818 1819 1820 ] final -168.64 input   43.70 | X-H torsion
[ 5782 5772 5771 5768 ] final   19.19 input   59.97 | X-H torsion
[ 15411 15403 15404 15405 ] final  114.90 input  102.24 | X-H torsion
[ 1801 1791 1792 1793 ] final -108.98 input  -10.55 | X-H torsion
[ 5632 5617 5618 5619 ] final   10.37 input   93.34 | X-H torsion
[ 7884 7874 7875 7876 ] final  -83.84 input   68.03 | X-H torsion
[ 1845 1824 1822 1819 ] final  -39.83 input   60.02 | X-H torsion
[ 1864 1854 1855 1856 ] final   44.84 input   57.50 | X-H torsion
[ 9363 9342 9343 9344 ] final  168.08 input   55.58 | X-H torsion
[ 9519 9492 9491 9489 ] final  -49.66 input   60.02 | X-H torsion
[ 7745 7723 7724 7725 ] final -108.75 input   17.81 | X-H torsion
[ 1896 1884 1883 1880 ] final -159.36 input   60.01 | X-H torsion
[ 9325 9315 9316 9317 ] final   28.48 input  -36.21 | X-H torsion
[ 1892 1879 1880 1881 ] final -168.97 input   98.21 | X-H torsion
[ 9302 9286 9287 9288 ] final   73.57 input   37.00 | X-H torsion
[ 9263 9233 9234 9235 ] final -162.02 input   95.32 | X-H torsion
[ 3370 3362 3363 3364 ] final -148.17 input   97.92 | X-H torsion
[ 1947 1922 1923 1924 ] final  -53.07 input  104.43 | X-H torsion
[ 12159 12148 12149 12150 ] final -115.99 input  116.04 | X-H torsion
[ 11673 11649 11648 11647 ] final  110.62 input   59.99 | X-H torsion
[ 12008 11984 11985 11986 ] final   87.76 input   61.04 | X-H torsion
[ 11113 11093 11094 11095 ] final   49.34 input   39.50 | X-H torsion
[ 7924 7916 7917 7918 ] final    6.19 input   66.66 | X-H torsion
[ 8650 8630 8631 8632 ] final -114.54 input   75.31 | X-H torsion
[ 9566 9536 9537 9538 ] final   88.03 input  103.50 | X-H torsion
[ 16472 10886 10885 10884 ] final  109.69 input    0.00 | X-H torsion
[ 16475 11004 11003 11002 ] final -101.25 input    0.00 | X-H torsion
[ 16477 10914 10913 10912 ] final -115.31 input    0.00 | X-H torsion
[ 16479 10951 10950 10949 ] final    7.03 input   -0.00 | X-H torsion
[ 16484 11987 11986 11985 ] final -123.75 input    0.00 | X-H torsion
[ 16486 12059 12058 12057 ] final   30.94 input   -0.00 | X-H torsion
[ 16490 11046 11045 11044 ] final  104.06 input    0.00 | X-H torsion
[ 16500 6108 6107 6106 ] final -111.09 input    0.00 | X-H torsion
[ 16503 5921 5920 5919 ] final   92.81 input   -0.00 | X-H torsion
[ 16506 6059 6058 6057 ] final  167.34 input    0.00 | X-H torsion
[ 16510 5858 5857 5856 ] final  -77.34 input    0.00 | X-H torsion
[ 16518 5993 5992 5991 ] final  -90.00 input   -0.00 | X-H torsion
[ 16523 11156 11155 11154 ] final  -14.06 input    0.00 | X-H torsion
[ 16528 11204 11203 11202 ] final -175.78 input    0.00 | X-H torsion
[ 16540 11096 11095 11094 ] final -137.81 input   -0.00 | X-H torsion
[ 16544 10768 10767 10766 ] final -129.38 input   -0.00 | X-H torsion
[ 16552 11240 11239 11238 ] final -154.69 input    0.00 | X-H torsion
[ 16558 11278 11277 11276 ] final -170.16 input   -0.00 | X-H torsion
[ 16562 11325 11324 11323 ] final -174.38 input   -0.00 | X-H torsion
[ 16566 9387 9386 9385 ] final -139.22 input   -0.00 | X-H torsion
[ 16570 9345 9344 9343 ] final   -2.81 input    0.00 | X-H torsion
[ 16579 5720 5719 5718 ] final  139.22 input    0.00 | X-H torsion
[ 16592 1821 1820 1819 ] final  -77.34 input    0.00 | X-H torsion
[ 16594 7834 7833 7832 ] final  127.97 input    0.00 | X-H torsion
[ 16600 1745 1744 1743 ] final    5.62 input    0.00 | X-H torsion
[ 16608 5620 5619 5618 ] final   19.69 input   -0.00 | X-H torsion
[ 16610 7788 7787 7786 ] final   -5.63 input   -0.00 | X-H torsion
[ 16613 1794 1793 1792 ] final  -50.63 input   -0.00 | X-H torsion
[ 16622 9318 9317 9316 ] final  165.94 input   -0.00 | X-H torsion
[ 16627 9433 9432 9431 ] final  143.44 input    0.00 | X-H torsion
[ 16631 7667 7666 7665 ] final  -94.22 input   -0.00 | X-H torsion
[ 16635 7726 7725 7724 ] final  122.34 input    0.00 | X-H torsion
[ 16637 10539 10538 10537 ] final   68.91 input   -0.00 | X-H torsion
[ 16643 1857 1856 1855 ] final  -11.25 input    0.00 | X-H torsion
[ 16645 7565 7564 7563 ] final    8.44 input    0.00 | X-H torsion
[ 16647 9289 9288 9287 ] final -140.62 input    0.00 | X-H torsion
[ 16649 9236 9235 9234 ] final  137.81 input    0.00 | X-H torsion
[ 16655 3365 3364 3363 ] final   43.59 input    0.00 | X-H torsion

> <Gold.Protein.ActiveResidues>
 LEU49   GLY50   THR51   GLY52   SER53   PHE54   VAL57   LEU82   LYS83   GLN84  
 HIS87   GLU127  PHE129  SER130  LEU132  ARG133  ARG134  ILE135  GLY136  ARG137 
 ARG165  ASP166  LEU167  LYS168  PRO169  GLU170  ASN171  LEU172  LEU173  ASP184 
 GLY186  PHE187  TPO197  LEU198  CYS199  GLY200  THR201  PRO202  GLU203  TYR204 
 LEU205  ILE209  ILE210  VAL226  LEU227  TYR229  GLU230  ALA233  GLY234  TYR235 
 PRO236  PRO237  PHE238  PHE239  ALA240  ASP241  GLN242  PRO243  ILE244  GLN245 
 ILE246  TYR247  GLU248  LYS249  ILE250  VAL251  SER252  LYS254  ARG256  PHE257 
 PRO258  SER259  PHE327  ASP328  TYR330 

> <Gold.Protein.RotatedAtoms>
    1.3188  -13.3545   21.2373 H   0  0  0  0  0  0  0  0  0  0  0  0  # atno 1801 bound_to 1791
   -0.1694  -14.4143   23.9477 H   0  0  0  0  0  0  0  0  0  0  0  0  # atno 1839 bound_to 1818
   -1.1958  -13.8410   28.0334 H   0  0  0  0  0  0  0  0  0  0  0  0  # atno 1845 bound_to 1824
   -2.1527  -16.8581   27.1074 H   0  0  0  0  0  0  0  0  0  0  0  0  # atno 1864 bound_to 1854
   -4.5274  -16.0513   30.1393 H   0  0  0  0  0  0  0  0  0  0  0  0  # atno 1892 bound_to 1879
   -6.3115  -15.7015   33.2298 H   0  0  0  0  0  0  0  0  0  0  0  0  # atno 1896 bound_to 1884
   -3.7030  -19.2362   31.0837 H   0  0  0  0  0  0  0  0  0  0  0  0  # atno 1947 bound_to 1922
   -7.5468  -23.8414   36.9625 H   0  0  0  0  0  0  0  0  0  0  0  0  # atno 3370 bound_to 3362
   -4.3047   -9.2961   13.1217 H   0  0  0  0  0  0  0  0  0  0  0  0  # atno 5632 bound_to 5617
   -8.6776   -7.1665   13.8653 H   0  0  0  0  0  0  0  0  0  0  0  0  # atno 5737 bound_to 5717
   -7.4987   -5.5224   15.0114 H   0  0  0  0  0  0  0  0  0  0  0  0  # atno 5778 bound_to 5767
   -4.7256   -5.9341   13.4851 H   0  0  0  0  0  0  0  0  0  0  0  0  # atno 5782 bound_to 5772
   -9.1758   -2.4778   15.2622 H   0  0  0  0  0  0  0  0  0  0  0  0  # atno 5955 bound_to 5918
   -6.7781    0.1345   15.3702 H   0  0  0  0  0  0  0  0  0  0  0  0  # atno 6027 bound_to 5990
   -7.2104    1.8938   12.4489 H   0  0  0  0  0  0  0  0  0  0  0  0  # atno 6075 bound_to 6056
  -10.3682    1.6510   11.7565 H   0  0  0  0  0  0  0  0  0  0  0  0  # atno 6112 bound_to 6105
  -12.4635    1.7853   12.2608 H   0  0  0  0  0  0  0  0  0  0  0  0  # atno 6164 bound_to 6140
  -16.0170  -13.0828   17.6737 H   0  0  0  0  0  0  0  0  0  0  0  0  # atno 7745 bound_to 7723
  -12.8871  -12.2249   24.4094 H   0  0  0  0  0  0  0  0  0  0  0  0  # atno 7755 bound_to 7731
  -11.6494  -13.3262   24.4623 H   0  0  0  0  0  0  0  0  0  0  0  0  # atno 7756 bound_to 7731
  -11.3535  -11.7690   23.9753 H   0  0  0  0  0  0  0  0  0  0  0  0  # atno 7757 bound_to 7731
  -10.5643   -9.3095   17.4669 H   0  0  0  0  0  0  0  0  0  0  0  0  # atno 7846 bound_to 7831
   -9.3917  -12.3854   17.3561 H   0  0  0  0  0  0  0  0  0  0  0  0  # atno 7884 bound_to 7874
   -9.4110  -13.1682   15.3151 H   0  0  0  0  0  0  0  0  0  0  0  0  # atno 7924 bound_to 7916
  -13.0312  -23.1318   23.8519 H   0  0  0  0  0  0  0  0  0  0  0  0  # atno 8650 bound_to 8630
  -22.3432  -20.9884   31.3013 H   0  0  0  0  0  0  0  0  0  0  0  0  # atno 9263 bound_to 9233
  -20.3365  -19.4540   28.7817 H   0  0  0  0  0  0  0  0  0  0  0  0  # atno 9302 bound_to 9286
  -17.4681  -16.4725   28.0941 H   0  0  0  0  0  0  0  0  0  0  0  0  # atno 9325 bound_to 9315
  -16.5071  -14.3233   25.3257 H   0  0  0  0  0  0  0  0  0  0  0  0  # atno 9363 bound_to 9342
  -14.2416  -13.0589   23.6361 H   0  0  0  0  0  0  0  0  0  0  0  0  # atno 9369 bound_to 9348
  -18.7461   -7.9764   26.6802 H   0  0  0  0  0  0  0  0  0  0  0  0  # atno 9451 bound_to 9430
  -19.5449   -8.6322   23.3063 H   0  0  0  0  0  0  0  0  0  0  0  0  # atno 9511 bound_to 9481
  -17.1492   -6.7839   18.4651 H   0  0  0  0  0  0  0  0  0  0  0  0  # atno 9519 bound_to 9492
  -21.4396  -10.5098   24.9999 H   0  0  0  0  0  0  0  0  0  0  0  0  # atno 9566 bound_to 9536
  -23.8494    1.8706   17.2519 H   0  0  0  0  0  0  0  0  0  0  0  0  # atno 10737 bound_to 10719
  -17.7300    0.4307   14.9419 H   0  0  0  0  0  0  0  0  0  0  0  0  # atno 10918 bound_to 10911
  -17.0690    1.5799   16.7569 H   0  0  0  0  0  0  0  0  0  0  0  0  # atno 10969 bound_to 10948
  -22.5959    4.3930   17.7520 H   0  0  0  0  0  0  0  0  0  0  0  0  # atno 10977 bound_to 10959
  -22.1421   -3.1239   22.3160 H   0  0  0  0  0  0  0  0  0  0  0  0  # atno 11113 bound_to 11093
  -21.3795   -0.5765   24.8902 H   0  0  0  0  0  0  0  0  0  0  0  0  # atno 11173 bound_to 11153
  -18.8285   -0.1754   27.3928 H   0  0  0  0  0  0  0  0  0  0  0  0  # atno 11211 bound_to 11201
  -18.0403    1.5094   31.4501 H   0  0  0  0  0  0  0  0  0  0  0  0  # atno 11249 bound_to 11237
  -18.0279   -0.8503   33.2497 H   0  0  0  0  0  0  0  0  0  0  0  0  # atno 11292 bound_to 11275
  -19.6439   -5.1243   34.5286 H   0  0  0  0  0  0  0  0  0  0  0  0  # atno 11385 bound_to 11366
  -21.1817   -3.3135   31.3590 H   0  0  0  0  0  0  0  0  0  0  0  0  # atno 11493 bound_to 11474
  -18.7401  -10.0409   31.1384 H   0  0  0  0  0  0  0  0  0  0  0  0  # atno 11568 bound_to 11550
  -23.8257    2.8617   28.5692 H   0  0  0  0  0  0  0  0  0  0  0  0  # atno 11673 bound_to 11649
  -25.1038    2.7606   27.5179 H   0  0  0  0  0  0  0  0  0  0  0  0  # atno 11674 bound_to 11649
  -25.1932    2.0306   29.0034 H   0  0  0  0  0  0  0  0  0  0  0  0  # atno 11675 bound_to 11649
   -7.8693    9.2430   26.2246 H   0  0  0  0  0  0  0  0  0  0  0  0  # atno 11686 bound_to 11631
   -9.2526    8.6545   26.9216 H   0  0  0  0  0  0  0  0  0  0  0  0  # atno 11687 bound_to 11631
   -8.7181    8.0263   25.4846 H   0  0  0  0  0  0  0  0  0  0  0  0  # atno 11688 bound_to 11631
  -13.5233   16.7083   23.3482 H   0  0  0  0  0  0  0  0  0  0  0  0  # atno 11826 bound_to 11799
  -18.2545   16.3018   24.5907 H   0  0  0  0  0  0  0  0  0  0  0  0  # atno 11911 bound_to 11856
  -16.8650   15.6573   23.9567 H   0  0  0  0  0  0  0  0  0  0  0  0  # atno 11912 bound_to 11856
  -17.6205   14.9090   25.2285 H   0  0  0  0  0  0  0  0  0  0  0  0  # atno 11913 bound_to 11856
  -27.8893    1.1429   20.3718 H   0  0  0  0  0  0  0  0  0  0  0  0  # atno 12008 bound_to 11984
  -28.0704    2.3166   17.0978 H   0  0  0  0  0  0  0  0  0  0  0  0  # atno 12076 bound_to 12056
  -25.5954    6.7432   13.3872 H   0  0  0  0  0  0  0  0  0  0  0  0  # atno 12159 bound_to 12148
    0.5350   -8.4013   17.9979 H   0  0  0  0  0  0  0  0  0  0  0  0  # atno 15411 bound_to 15403
   -2.1940  -10.1602   22.3168 H   0  0  0  0  0  0  0  0  0  0  0  0  # atno 15475 bound_to 15466
  -12.4019   16.3888   22.2133 LP  0  0  0  0  0  0  0  0  0  0  0  0  # atno 16466 bound_to 11799
  -12.9648   15.1905   23.1692 LP  0  0  0  0  0  0  0  0  0  0  0  0  # atno 16467 bound_to 11799
  -21.7267    4.8807   16.4655 LP  0  0  0  0  0  0  0  0  0  0  0  0  # atno 16468 bound_to 10959
  -21.6691    5.7263   17.8613 LP  0  0  0  0  0  0  0  0  0  0  0  0  # atno 16469 bound_to 10959
  -17.3522    3.3223   15.3162 LP  0  0  0  0  0  0  0  0  0  0  0  0  # atno 16472 bound_to 10886
  -17.3532    3.6149   13.6090 LP  0  0  0  0  0  0  0  0  0  0  0  0  # atno 16473 bound_to 10886
  -16.6076   -0.0764   16.4154 LP  0  0  0  0  0  0  0  0  0  0  0  0  # atno 16474 bound_to 10948
  -20.7672   -0.6139   21.9274 LP  0  0  0  0  0  0  0  0  0  0  0  0  # atno 16475 bound_to 11004
  -20.5292    0.1868   20.4101 LP  0  0  0  0  0  0  0  0  0  0  0  0  # atno 16476 bound_to 11004
  -14.2803    0.3376   17.7491 LP  0  0  0  0  0  0  0  0  0  0  0  0  # atno 16477 bound_to 10914
  -14.2306    1.9777   17.1945 LP  0  0  0  0  0  0  0  0  0  0  0  0  # atno 16478 bound_to 10914
  -19.0733   -0.1639   16.9003 LP  0  0  0  0  0  0  0  0  0  0  0  0  # atno 16479 bound_to 10951
  -20.0100   -1.2412   17.8812 LP  0  0  0  0  0  0  0  0  0  0  0  0  # atno 16480 bound_to 10951
  -23.2077    1.3405   18.6500 LP  0  0  0  0  0  0  0  0  0  0  0  0  # atno 16482 bound_to 10719
  -24.7986    1.1310   18.3471 LP  0  0  0  0  0  0  0  0  0  0  0  0  # atno 16483 bound_to 10719
  -25.5029    2.1836   17.6849 LP  0  0  0  0  0  0  0  0  0  0  0  0  # atno 16484 bound_to 11987
  -26.4716    0.8209   18.1373 LP  0  0  0  0  0  0  0  0  0  0  0  0  # atno 16485 bound_to 11987
  -27.5591    5.4644   15.9332 LP  0  0  0  0  0  0  0  0  0  0  0  0  # atno 16486 bound_to 12059
  -26.6792    6.1467   14.6064 LP  0  0  0  0  0  0  0  0  0  0  0  0  # atno 16487 bound_to 12059
  -25.2175   -1.2211   22.6403 LP  0  0  0  0  0  0  0  0  0  0  0  0  # atno 16490 bound_to 11046
  -24.1676    0.1052   22.2678 LP  0  0  0  0  0  0  0  0  0  0  0  0  # atno 16491 bound_to 11046
  -27.9490    4.0580   17.0348 LP  0  0  0  0  0  0  0  0  0  0  0  0  # atno 16492 bound_to 12056
  -17.1141    1.0624   13.4297 LP  0  0  0  0  0  0  0  0  0  0  0  0  # atno 16493 bound_to 10911
  -12.8960    0.2343   13.4201 LP  0  0  0  0  0  0  0  0  0  0  0  0  # atno 16500 bound_to 6108
  -13.4819    1.5317   14.4067 LP  0  0  0  0  0  0  0  0  0  0  0  0  # atno 16501 bound_to 6108
  -12.9461    3.0684   11.1763 LP  0  0  0  0  0  0  0  0  0  0  0  0  # atno 16502 bound_to 6140
   -8.0033    2.3983   16.1096 LP  0  0  0  0  0  0  0  0  0  0  0  0  # atno 16503 bound_to 5921
   -9.1178    2.2225   14.7954 LP  0  0  0  0  0  0  0  0  0  0  0  0  # atno 16504 bound_to 5921
   -9.3267    2.6535   12.7440 LP  0  0  0  0  0  0  0  0  0  0  0  0  # atno 16505 bound_to 6105
  -10.7619    4.4880   11.4206 LP  0  0  0  0  0  0  0  0  0  0  0  0  # atno 16506 bound_to 6059
   -9.3137    4.5472   10.4723 LP  0  0  0  0  0  0  0  0  0  0  0  0  # atno 16507 bound_to 6059
   -9.6028    0.4395   12.8488 LP  0  0  0  0  0  0  0  0  0  0  0  0  # atno 16510 bound_to 5858
  -10.9130    0.3331   13.9766 LP  0  0  0  0  0  0  0  0  0  0  0  0  # atno 16511 bound_to 5858
   -9.2147   -1.2785   13.9935 LP  0  0  0  0  0  0  0  0  0  0  0  0  # atno 16516 bound_to 5918
   -7.8426   -0.0469   13.9889 LP  0  0  0  0  0  0  0  0  0  0  0  0  # atno 16517 bound_to 5990
   -7.3643    3.9597   12.9048 LP  0  0  0  0  0  0  0  0  0  0  0  0  # atno 16518 bound_to 5993
   -6.0601    3.6165   11.8180 LP  0  0  0  0  0  0  0  0  0  0  0  0  # atno 16519 bound_to 5993
   -7.8614    0.4136   11.8036 LP  0  0  0  0  0  0  0  0  0  0  0  0  # atno 16520 bound_to 6056
  -21.2645    0.7643   26.4632 LP  0  0  0  0  0  0  0  0  0  0  0  0  # atno 16523 bound_to 11156
  -21.0213    0.9678   28.1660 LP  0  0  0  0  0  0  0  0  0  0  0  0  # atno 16524 bound_to 11156
  -19.4011   -1.5200   28.3613 LP  0  0  0  0  0  0  0  0  0  0  0  0  # atno 16525 bound_to 11201
  -15.9590   -0.8759   30.1973 LP  0  0  0  0  0  0  0  0  0  0  0  0  # atno 16528 bound_to 11204
  -16.9250   -1.0384   28.7689 LP  0  0  0  0  0  0  0  0  0  0  0  0  # atno 16529 bound_to 11204
  -17.7915   -0.0765   30.7589 LP  0  0  0  0  0  0  0  0  0  0  0  0  # atno 16530 bound_to 11237
  -21.6167   -2.1780   25.5563 LP  0  0  0  0  0  0  0  0  0  0  0  0  # atno 16533 bound_to 11153
  -20.2191   -3.7951   25.4589 LP  0  0  0  0  0  0  0  0  0  0  0  0  # atno 16540 bound_to 11096
  -20.7078   -3.9342   23.8031 LP  0  0  0  0  0  0  0  0  0  0  0  0  # atno 16541 bound_to 11096
  -16.8195   -1.4412   13.6694 LP  0  0  0  0  0  0  0  0  0  0  0  0  # atno 16544 bound_to 10768
  -16.1835   -1.9296   15.2046 LP  0  0  0  0  0  0  0  0  0  0  0  0  # atno 16545 bound_to 10768
  -15.0475   -2.4887   32.5569 LP  0  0  0  0  0  0  0  0  0  0  0  0  # atno 16552 bound_to 11240
  -14.2009   -0.9777   32.5543 LP  0  0  0  0  0  0  0  0  0  0  0  0  # atno 16553 bound_to 11240
  -16.4961   -1.1840   32.4772 LP  0  0  0  0  0  0  0  0  0  0  0  0  # atno 16554 bound_to 11275
  -19.7723   -4.1974   32.1649 LP  0  0  0  0  0  0  0  0  0  0  0  0  # atno 16558 bound_to 11278
  -19.3636   -2.5280   32.3797 LP  0  0  0  0  0  0  0  0  0  0  0  0  # atno 16559 bound_to 11278
  -18.2660   -9.1377   25.4630 LP  0  0  0  0  0  0  0  0  0  0  0  0  # atno 16561 bound_to 9430
  -21.8086   -6.1152   32.3022 LP  0  0  0  0  0  0  0  0  0  0  0  0  # atno 16562 bound_to 11325
  -20.5901   -6.4326   31.1129 LP  0  0  0  0  0  0  0  0  0  0  0  0  # atno 16563 bound_to 11325
  -22.8894   -3.5694   31.6566 LP  0  0  0  0  0  0  0  0  0  0  0  0  # atno 16564 bound_to 11474
  -19.8543   -6.6083   33.6457 LP  0  0  0  0  0  0  0  0  0  0  0  0  # atno 16565 bound_to 11366
  -21.2096   -8.8026   25.9385 LP  0  0  0  0  0  0  0  0  0  0  0  0  # atno 16566 bound_to 9387
  -21.0658   -8.6899   27.6609 LP  0  0  0  0  0  0  0  0  0  0  0  0  # atno 16567 bound_to 9387
  -19.4625  -11.4664   31.4452 LP  0  0  0  0  0  0  0  0  0  0  0  0  # atno 16568 bound_to 11550
  -18.9669  -10.5168   32.6779 LP  0  0  0  0  0  0  0  0  0  0  0  0  # atno 16569 bound_to 11550
  -18.5522  -12.0382   24.6301 LP  0  0  0  0  0  0  0  0  0  0  0  0  # atno 16570 bound_to 9345
  -19.3168  -10.7809   25.5437 LP  0  0  0  0  0  0  0  0  0  0  0  0  # atno 16571 bound_to 9345
  -15.0979  -13.9489   24.6954 LP  0  0  0  0  0  0  0  0  0  0  0  0  # atno 16572 bound_to 9348
  -13.8549  -13.0269   25.2163 LP  0  0  0  0  0  0  0  0  0  0  0  0  # atno 16573 bound_to 9348
  -19.6150   -9.8956   24.5143 LP  0  0  0  0  0  0  0  0  0  0  0  0  # atno 16574 bound_to 9481
   -7.7585   -3.4836   16.2585 LP  0  0  0  0  0  0  0  0  0  0  0  0  # atno 16579 bound_to 5720
   -9.1810   -3.9482   15.3863 LP  0  0  0  0  0  0  0  0  0  0  0  0  # atno 16580 bound_to 5720
   -1.5715  -10.7614   20.9389 LP  0  0  0  0  0  0  0  0  0  0  0  0  # atno 16587 bound_to 15466
   -1.4409   -9.1677   21.2702 LP  0  0  0  0  0  0  0  0  0  0  0  0  # atno 16588 bound_to 15466
  -11.4033  -10.8428   17.6309 LP  0  0  0  0  0  0  0  0  0  0  0  0  # atno 16591 bound_to 7831
   -2.8171  -13.1329   27.1036 LP  0  0  0  0  0  0  0  0  0  0  0  0  # atno 16592 bound_to 1821
   -3.8595  -13.8234   25.9050 LP  0  0  0  0  0  0  0  0  0  0  0  0  # atno 16593 bound_to 1821
   -7.9143  -13.7104   18.4423 LP  0  0  0  0  0  0  0  0  0  0  0  0  # atno 16594 bound_to 7834
   -7.2247  -12.3966   17.5487 LP  0  0  0  0  0  0  0  0  0  0  0  0  # atno 16595 bound_to 7834
   -9.0722   -8.4795   14.9618 LP  0  0  0  0  0  0  0  0  0  0  0  0  # atno 16596 bound_to 5717
   -6.3926   -6.4293   16.0200 LP  0  0  0  0  0  0  0  0  0  0  0  0  # atno 16597 bound_to 5767
   -0.1707  -12.8919   18.5606 LP  0  0  0  0  0  0  0  0  0  0  0  0  # atno 16600 bound_to 1745
   -1.0250  -12.8620   20.0670 LP  0  0  0  0  0  0  0  0  0  0  0  0  # atno 16601 bound_to 1745
   -1.6871  -13.6223   24.3076 LP  0  0  0  0  0  0  0  0  0  0  0  0  # atno 16602 bound_to 1818
   -4.0645   -7.0126   14.5088 LP  0  0  0  0  0  0  0  0  0  0  0  0  # atno 16603 bound_to 5772
   -3.1158   -5.9405   13.7231 LP  0  0  0  0  0  0  0  0  0  0  0  0  # atno 16604 bound_to 5772
    1.9707   -7.9449   17.1114 LP  0  0  0  0  0  0  0  0  0  0  0  0  # atno 16605 bound_to 15403
    0.8470  -14.9964   20.8544 LP  0  0  0  0  0  0  0  0  0  0  0  0  # atno 16606 bound_to 1791
   -3.9585  -10.9195   13.6810 LP  0  0  0  0  0  0  0  0  0  0  0  0  # atno 16607 bound_to 5617
   -5.2476   -7.9406   13.2793 LP  0  0  0  0  0  0  0  0  0  0  0  0  # atno 16608 bound_to 5620
   -6.8239   -7.2254   13.2167 LP  0  0  0  0  0  0  0  0  0  0  0  0  # atno 16609 bound_to 5620
  -10.2681  -10.1827   14.6189 LP  0  0  0  0  0  0  0  0  0  0  0  0  # atno 16610 bound_to 7788
   -9.0647  -10.5225   15.8174 LP  0  0  0  0  0  0  0  0  0  0  0  0  # atno 16611 bound_to 7788
  -11.0595  -12.6721   17.7784 LP  0  0  0  0  0  0  0  0  0  0  0  0  # atno 16612 bound_to 7874
    0.0316  -16.5447   22.7757 LP  0  0  0  0  0  0  0  0  0  0  0  0  # atno 16613 bound_to 1794
    0.9261  -16.0192   24.1627 LP  0  0  0  0  0  0  0  0  0  0  0  0  # atno 16614 bound_to 1794
    0.2991  -13.9285   28.6703 LP  0  0  0  0  0  0  0  0  0  0  0  0  # atno 16615 bound_to 1824
   -0.6462  -15.2588   28.6129 LP  0  0  0  0  0  0  0  0  0  0  0  0  # atno 16616 bound_to 1824
   -2.6592  -15.2634   26.5774 LP  0  0  0  0  0  0  0  0  0  0  0  0  # atno 16617 bound_to 1854
  -15.2435  -13.9354   27.3479 LP  0  0  0  0  0  0  0  0  0  0  0  0  # atno 16622 bound_to 9318
  -15.8864  -15.4347   27.9297 LP  0  0  0  0  0  0  0  0  0  0  0  0  # atno 16623 bound_to 9318
  -18.0415  -13.6641   25.8476 LP  0  0  0  0  0  0  0  0  0  0  0  0  # atno 16624 bound_to 9342
  -21.2692   -8.0905   22.1348 LP  0  0  0  0  0  0  0  0  0  0  0  0  # atno 16627 bound_to 9433
  -21.6787   -7.1098   23.5025 LP  0  0  0  0  0  0  0  0  0  0  0  0  # atno 16628 bound_to 9433
  -17.5267   -7.8016   17.2526 LP  0  0  0  0  0  0  0  0  0  0  0  0  # atno 16629 bound_to 9492
  -16.0857   -7.9285   18.0101 LP  0  0  0  0  0  0  0  0  0  0  0  0  # atno 16630 bound_to 9492
  -17.7022  -12.1711   19.0466 LP  0  0  0  0  0  0  0  0  0  0  0  0  # atno 16631 bound_to 7667
  -16.9269  -13.0253   20.3387 LP  0  0  0  0  0  0  0  0  0  0  0  0  # atno 16632 bound_to 7667
  -14.5211  -13.6215   18.4145 LP  0  0  0  0  0  0  0  0  0  0  0  0  # atno 16634 bound_to 7723
  -13.0325  -12.2212   15.6691 LP  0  0  0  0  0  0  0  0  0  0  0  0  # atno 16635 bound_to 7726
  -12.6012  -12.8953   17.2052 LP  0  0  0  0  0  0  0  0  0  0  0  0  # atno 16636 bound_to 7726
  -20.1226   -5.8615   17.2928 LP  0  0  0  0  0  0  0  0  0  0  0  0  # atno 16637 bound_to 10539
  -20.6758   -5.8695   15.6515 LP  0  0  0  0  0  0  0  0  0  0  0  0  # atno 16638 bound_to 10539
   -6.4542  -15.9629   31.6303 LP  0  0  0  0  0  0  0  0  0  0  0  0  # atno 16639 bound_to 1884
   -5.0695  -15.3485   32.2400 LP  0  0  0  0  0  0  0  0  0  0  0  0  # atno 16640 bound_to 1884
  -17.7191  -17.7887   26.9651 LP  0  0  0  0  0  0  0  0  0  0  0  0  # atno 16641 bound_to 9315
   -4.6035  -17.6754   29.4944 LP  0  0  0  0  0  0  0  0  0  0  0  0  # atno 16642 bound_to 1879
   -1.6114  -16.7038   28.9698 LP  0  0  0  0  0  0  0  0  0  0  0  0  # atno 16643 bound_to 1857
   -2.0149  -17.0007   30.6278 LP  0  0  0  0  0  0  0  0  0  0  0  0  # atno 16644 bound_to 1857
  -18.5100  -18.0504   23.5141 LP  0  0  0  0  0  0  0  0  0  0  0  0  # atno 16645 bound_to 7565
  -17.2346  -17.0226   22.9511 LP  0  0  0  0  0  0  0  0  0  0  0  0  # atno 16646 bound_to 7565
  -19.7618  -17.3820   25.9132 LP  0  0  0  0  0  0  0  0  0  0  0  0  # atno 16647 bound_to 9289
  -20.5812  -17.5487   27.4301 LP  0  0  0  0  0  0  0  0  0  0  0  0  # atno 16648 bound_to 9289
  -17.9951  -19.5113   31.0066 LP  0  0  0  0  0  0  0  0  0  0  0  0  # atno 16649 bound_to 9236
  -18.8509  -18.6040   32.2084 LP  0  0  0  0  0  0  0  0  0  0  0  0  # atno 16650 bound_to 9236
  -19.9376  -18.4409   30.1493 LP  0  0  0  0  0  0  0  0  0  0  0  0  # atno 16653 bound_to 9286
  -20.6155  -21.2462   31.2081 LP  0  0  0  0  0  0  0  0  0  0  0  0  # atno 16654 bound_to 9233
  -10.7797  -22.9153   33.5027 LP  0  0  0  0  0  0  0  0  0  0  0  0  # atno 16655 bound_to 3365
  -12.0947  -23.6475   34.3599 LP  0  0  0  0  0  0  0  0  0  0  0  0  # atno 16656 bound_to 3365
   -7.9621  -25.0515   35.7717 LP  0  0  0  0  0  0  0  0  0  0  0  0  # atno 16657 bound_to 3362
   -5.2257  -19.3545   30.2240 LP  0  0  0  0  0  0  0  0  0  0  0  0  # atno 16658 bound_to 1922

> <Gold.Score>
     Fitness  S(hb_ext) S(vdw_ext)  S(hb_int)    S(int)      intcor
     25.64       3.94      16.27       0.00      -0.67      -0.76

> <Gold.Goldscore.Fitness>
25.6413

> <Gold.Goldscore.Internal.Vdw>
-0.8076

> <Gold.Goldscore.Internal.Torsion>
-0.6231

> <Gold.Goldscore.External.Vdw>
16.2720

> <Gold.Goldscore.Internal.HBond>
0.0000

> <Gold.Goldscore.External.HBond>
3.9395

> <Gold.Goldscore.Internal.Correction>
-0.7585

> <Gold.Goldscore.Hbonds>
donor molecule, donor type, donor heavy atom, donor atom, acceptor molecule, acceptor atom, score
      P1  H  7731  7757       L1    17  0.66

> <Gold.Goldscore.Internal.Vdw.Weighted>
-0.8076

> <Gold.Goldscore.Internal.Torsion.Weighted>
-0.6231

> <Gold.Goldscore.External.Vdw.Weighted>
22.3740

> <Gold.Goldscore.Internal.HBond.Weighted>
0.0000

> <Gold.Goldscore.External.HBond.Weighted>
3.9395

> <Gold.Goldscore.Internal.Correction.Weighted>
-0.7585

> <Gold.Rescore>
     Score     S(PLP)   S(hbond)     S(cho)   S(metal)  DE(clash)   DE(tors)     intcor
     23.42     -22.83       1.00       0.00       0.00       0.00       1.20       ----

> <Gold.PLP.Fitness>
23.4199

> <Gold.PLP.PLP>
-22.8265

> <Gold.PLP.part.hbond>
-2.0000

> <Gold.PLP.part.metal>
0.0000

> <Gold.PLP.part.buried>
-2.9560

> <Gold.PLP.part.nonpolar>
-18.7367

> <Gold.PLP.part.repulsive>
0.3835

> <Gold.PLP.ligand.clash>
0.0000

> <Gold.PLP.ligand.torsion>
1.2033

> <Gold.PLP.Chemscore.Hbond>
1.0000

> <Gold.PLP.Chemscore.CHOScore>
0.0000

> <Gold.PLP.Chemscore.Metal>
0.0000

> <Gold.Chemscore.Hbonds>
donor molecule, donor type, donor heavy atom, donor atom, acceptor molecule, acceptor atom, score
      P1  H  7731  7757       L1    17  0.50

> <Gold.PLP.Chemscore.Internal.Correction>
   9.000000E+99

#       Name:                CT1002167954
#       Creating user name   hitesit
#       Creation time:       Sun Apr 16 22:51:53 2023


#       File generated by GOLD software.
#

@<TRIPOS>MOLECULE
CT1002167954|ligand_prepared|mol2|1|dock3
    29    30     1
SMALL
NO_CHARGES


@<TRIPOS>ATOM
      1 C1         -13.5890   1.6698  21.2430 C.3            1 RES1               0.0000
      2 C2         -13.3513   2.1550  19.7984 C.ar           1 RES1               0.0000
      3 C3         -13.0382   0.2485  21.3137 C.2            1 RES1               0.0000
      4 C4         -12.8695   2.6617  22.1501 C.2            1 RES1               0.0000
      5 C5         -15.0794   1.6400  21.6548 C.3            1 RES1               0.0000
      6 C6         -12.3077   1.6346  19.0388 C.ar           1 RES1               0.0000
      7 C7         -14.1672   3.1187  19.2118 C.ar           1 RES1               0.0000
      8 N8         -11.8630   0.0588  21.9791 N.am           1 RES1               0.0000
      9 O9         -13.6060  -0.6851  20.7604 O.2            1 RES1               0.0000
     10 N10        -11.7996   2.2083  22.8764 N.am           1 RES1               0.0000
     11 O11        -13.2090   3.8359  22.2298 O.2            1 RES1               0.0000
     12 C12        -15.3272   1.0070  23.0149 C.3            1 RES1               0.0000
     13 C13        -12.0895   2.0599  17.7389 C.ar           1 RES1               0.0000
     14 C14        -13.9471   3.5429  17.9118 C.ar           1 RES1               0.0000
     15 C15        -11.2447   0.9594  22.8087 C.2            1 RES1               0.0000
     16 C16        -12.9092   3.0139  17.1744 C.ar           1 RES1               0.0000
     17 O17        -10.2487   0.6429  23.4528 O.2            1 RES1               0.0000
     18 H18        -15.4625   2.6679  21.6686 H              1 RES1               0.0000
     19 H19        -15.6439   1.0820  20.8975 H              1 RES1               0.0000
     20 H20        -11.6508   0.8848  19.4670 H              1 RES1               0.0000
     21 H21        -14.9891   3.5496  19.7734 H              1 RES1               0.0000
     22 H22        -11.4011  -0.8354  21.8476 H              1 RES1               0.0000
     23 H23        -11.3778   2.8624  23.5280 H              1 RES1               0.0000
     24 H24        -16.3883   1.0116  23.2550 H              1 RES1               0.0000
     25 H25        -14.9810  -0.0244  23.0292 H              1 RES1               0.0000
     26 H26        -14.8007   1.5521  23.7957 H              1 RES1               0.0000
     27 H27        -11.2705   1.6415  17.1633 H              1 RES1               0.0000
     28 H28        -14.5943   4.2944  17.4717 H              1 RES1               0.0000
     29 H29        -12.7383   3.3467  16.1560 H              1 RES1               0.0000
@<TRIPOS>BOND
    1    1    2 1     
    2    1    3 1     
    3    1    4 1     
    4    1    5 1     
    5    2    6 ar    
    6    2    7 ar    
    7    3    8 1     
    8    3    9 2     
    9    4   10 1     
   10    4   11 2     
   11    5   12 1     
   12    5   18 1     
   13    5   19 1     
   14    6   13 ar    
   15    6   20 1     
   16    7   14 ar    
   17    7   21 1     
   18    8   15 1     
   19    8   22 1     
   20   10   15 1     
   21   10   23 1     
   22   12   24 1     
   23   12   25 1     
   24   12   26 1     
   25   13   16 ar    
   26   13   27 1     
   27   14   16 ar    
   28   14   28 1     
   29   15   17 2     
   30   16   29 1     
@<TRIPOS>SUBSTRUCTURE
      1 RES1           1
@<TRIPOS>SET
DONOR_HYDROGENS      STATIC     ATOMS    <user>   **** ""
2 22 23
ATOM$RED        STATIC     ATOMS    COLORGROUP SYSTEM
2 22 23
@<TRIPOS>COMMENT
> <Gold.Version>
2022.3.0

> <Gold.Id.Protein>
unknown|3mvj_clean|pdb

> <Gold.Protein.RotatedTorsions>
[ 11826 11799 11798 11795 ] final   40.27 input   60.01 | X-H torsion
[ 11911 11856 11855 11854 ] final   -5.99 input   60.02 | X-H torsion
[ 10977 10959 10958 10956 ] final -159.31 input   60.00 | X-H torsion
[ 10969 10948 10949 10950 ] final  -26.85 input   32.02 | X-H torsion
[ 10737 10719 10718 10716 ] final -105.39 input   60.01 | X-H torsion
[ 12076 12056 12057 12058 ] final -150.19 input   63.02 | X-H torsion
[ 10918 10911 10912 10913 ] final    4.53 input  -92.90 | X-H torsion
[ 6164 6140 6141 6142 ] final  -58.24 input   39.58 | X-H torsion
[ 6112 6105 6106 6107 ] final   93.91 input  -69.34 | X-H torsion
[ 5955 5918 5919 5920 ] final -120.97 input  125.26 | X-H torsion
[ 6027 5990 5991 5992 ] final   96.62 input  110.40 | X-H torsion
[ 6075 6056 6057 6058 ] final   10.23 input  107.04 | X-H torsion
[ 11686 11631 11630 11629 ] final   76.06 input   60.02 | X-H torsion
[ 11211 11201 11202 11203 ] final   92.51 input   18.84 | X-H torsion
[ 11249 11237 11238 11239 ] final -165.25 input  111.29 | X-H torsion
[ 11173 11153 11154 11155 ] final  105.37 input   30.50 | X-H torsion
[ 11292 11275 11276 11277 ] final   -5.95 input   58.53 | X-H torsion
[ 9451 9430 9431 9432 ] final  176.39 input  110.06 | X-H torsion
[ 11493 11474 11475 11476 ] final   -0.47 input  115.95 | X-H torsion
[ 11385 11366 11367 11368 ] final  -50.73 input  117.79 | X-H torsion
[ 11568 11550 11549 11547 ] final   56.02 input   59.97 | X-H torsion
[ 9369 9348 9346 9343 ] final  138.98 input   60.02 | X-H torsion
[ 9511 9481 9482 9483 ] final -167.18 input   75.78 | X-H torsion
[ 15475 15466 15465 15463 ] final  -76.17 input   60.00 | X-H torsion
[ 7755 7731 7730 7729 ] final   18.11 input   60.02 | X-H torsion
[ 7846 7831 7832 7833 ] final -158.44 input  113.97 | X-H torsion
[ 5737 5717 5718 5719 ] final  -30.41 input  137.93 | X-H torsion
[ 5778 5767 5768 5769 ] final  107.05 input  116.46 | X-H torsion
[ 1839 1818 1819 1820 ] final  165.12 input   43.70 | X-H torsion
[ 5782 5772 5771 5768 ] final -160.25 input   59.97 | X-H torsion
[ 15411 15403 15404 15405 ] final   -0.06 input  102.24 | X-H torsion
[ 1801 1791 1792 1793 ] final -102.97 input  -10.55 | X-H torsion
[ 5632 5617 5618 5619 ] final   -9.12 input   93.34 | X-H torsion
[ 7884 7874 7875 7876 ] final   90.60 input   68.03 | X-H torsion
[ 1845 1824 1822 1819 ] final   36.13 input   60.02 | X-H torsion
[ 1864 1854 1855 1856 ] final  142.12 input   57.50 | X-H torsion
[ 9363 9342 9343 9344 ] final   44.49 input   55.58 | X-H torsion
[ 9519 9492 9491 9489 ] final  152.96 input   60.02 | X-H torsion
[ 7745 7723 7724 7725 ] final -150.73 input   17.81 | X-H torsion
[ 1896 1884 1883 1880 ] final  159.71 input   60.01 | X-H torsion
[ 9325 9315 9316 9317 ] final   20.28 input  -36.21 | X-H torsion
[ 1892 1879 1880 1881 ] final   19.70 input   98.21 | X-H torsion
[ 9302 9286 9287 9288 ] final   38.21 input   37.00 | X-H torsion
[ 9263 9233 9234 9235 ] final   -5.75 input   95.32 | X-H torsion
[ 3370 3362 3363 3364 ] final  106.53 input   97.92 | X-H torsion
[ 1947 1922 1923 1924 ] final   -0.88 input  104.43 | X-H torsion
[ 12159 12148 12149 12150 ] final -166.50 input  116.04 | X-H torsion
[ 11673 11649 11648 11647 ] final    3.84 input   59.99 | X-H torsion
[ 12008 11984 11985 11986 ] final  118.83 input   61.04 | X-H torsion
[ 11113 11093 11094 11095 ] final   12.85 input   39.50 | X-H torsion
[ 7924 7916 7917 7918 ] final   92.89 input   66.66 | X-H torsion
[ 8650 8630 8631 8632 ] final -170.61 input   75.31 | X-H torsion
[ 9566 9536 9537 9538 ] final  -55.30 input  103.50 | X-H torsion
[ 16472 10886 10885 10884 ] final  -15.33 input    0.00 | X-H torsion
[ 16475 11004 11003 11002 ] final  -47.80 input    0.00 | X-H torsion
[ 16477 10914 10913 10912 ] final -171.50 input    0.00 | X-H torsion
[ 16479 10951 10950 10949 ] final -153.27 input   -0.00 | X-H torsion
[ 16484 11987 11986 11985 ] final   37.92 input    0.00 | X-H torsion
[ 16486 12059 12058 12057 ] final  -84.41 input   -0.00 | X-H torsion
[ 16490 11046 11045 11044 ] final -108.37 input    0.00 | X-H torsion
[ 16500 6108 6107 6106 ] final   59.95 input    0.00 | X-H torsion
[ 16503 5921 5920 5919 ] final  -53.55 input   -0.00 | X-H torsion
[ 16506 6059 6058 6057 ] final   70.21 input    0.00 | X-H torsion
[ 16510 5858 5857 5856 ] final   20.94 input    0.00 | X-H torsion
[ 16518 5993 5992 5991 ] final  126.39 input   -0.00 | X-H torsion
[ 16523 11156 11155 11154 ] final   49.03 input    0.00 | X-H torsion
[ 16528 11204 11203 11202 ] final -130.94 input    0.00 | X-H torsion
[ 16540 11096 11095 11094 ] final  -43.75 input   -0.00 | X-H torsion
[ 16544 10768 10767 10766 ] final  159.65 input   -0.00 | X-H torsion
[ 16552 11240 11239 11238 ] final  116.43 input    0.00 | X-H torsion
[ 16558 11278 11277 11276 ] final  100.93 input   -0.00 | X-H torsion
[ 16562 11325 11324 11323 ] final   -4.50 input   -0.00 | X-H torsion
[ 16566 9387 9386 9385 ] final  -94.53 input   -0.00 | X-H torsion
[ 16570 9345 9344 9343 ] final   86.88 input    0.00 | X-H torsion
[ 16579 5720 5719 5718 ] final  159.96 input    0.00 | X-H torsion
[ 16592 1821 1820 1819 ] final  172.61 input    0.00 | X-H torsion
[ 16594 7834 7833 7832 ] final  171.14 input    0.00 | X-H torsion
[ 16600 1745 1744 1743 ] final  -23.92 input    0.00 | X-H torsion
[ 16608 5620 5619 5618 ] final -177.70 input   -0.00 | X-H torsion
[ 16610 7788 7787 7786 ] final  -80.65 input   -0.00 | X-H torsion
[ 16613 1794 1793 1792 ] final   58.56 input   -0.00 | X-H torsion
[ 16622 9318 9317 9316 ] final -176.30 input   -0.00 | X-H torsion
[ 16627 9433 9432 9431 ] final  -49.75 input    0.00 | X-H torsion
[ 16631 7667 7666 7665 ] final  -92.09 input   -0.00 | X-H torsion
[ 16635 7726 7725 7724 ] final  108.98 input    0.00 | X-H torsion
[ 16637 10539 10538 10537 ] final -128.69 input   -0.00 | X-H torsion
[ 16643 1857 1856 1855 ] final  -58.36 input    0.00 | X-H torsion
[ 16645 7565 7564 7563 ] final   -4.95 input    0.00 | X-H torsion
[ 16647 9289 9288 9287 ] final -152.64 input    0.00 | X-H torsion
[ 16649 9236 9235 9234 ] final  113.50 input    0.00 | X-H torsion
[ 16655 3365 3364 3363 ] final   24.87 input    0.00 | X-H torsion

> <Gold.Protein.ActiveResidues>
 LEU49   GLY50   THR51   GLY52   SER53   PHE54   VAL57   LEU82   LYS83   GLN84  
 HIS87   GLU127  PHE129  SER130  LEU132  ARG133  ARG134  ILE135  GLY136  ARG137 
 ARG165  ASP166  LEU167  LYS168  PRO169  GLU170  ASN171  LEU172  LEU173  ASP184 
 GLY186  PHE187  TPO197  LEU198  CYS199  GLY200  THR201  PRO202  GLU203  TYR204 
 LEU205  ILE209  ILE210  VAL226  LEU227  TYR229  GLU230  ALA233  GLY234  TYR235 
 PRO236  PRO237  PHE238  PHE239  ALA240  ASP241  GLN242  PRO243  ILE244  GLN245 
 ILE246  TYR247  GLU248  LYS249  ILE250  VAL251  SER252  LYS254  ARG256  PHE257 
 PRO258  SER259  PHE327  ASP328  TYR330 

> <Gold.Protein.RotatedAtoms>
    1.3661  -13.3902   21.3095 H   0  0  0  0  0  0  0  0  0  0  0  0  # atno 1801 bound_to 1791
   -0.0552  -14.0861   24.1513 H   0  0  0  0  0  0  0  0  0  0  0  0  # atno 1839 bound_to 1818
   -1.2062  -14.9603   28.3068 H   0  0  0  0  0  0  0  0  0  0  0  0  # atno 1845 bound_to 1824
   -2.9513  -16.3099   26.1691 H   0  0  0  0  0  0  0  0  0  0  0  0  # atno 1864 bound_to 1854
   -4.7320  -17.6997   29.5297 H   0  0  0  0  0  0  0  0  0  0  0  0  # atno 1892 bound_to 1879
   -6.7419  -15.9250   32.7905 H   0  0  0  0  0  0  0  0  0  0  0  0  # atno 1896 bound_to 1884
   -3.6799  -19.0711   30.3147 H   0  0  0  0  0  0  0  0  0  0  0  0  # atno 1947 bound_to 1922
   -7.2304  -24.2910   35.6677 H   0  0  0  0  0  0  0  0  0  0  0  0  # atno 3370 bound_to 3362
   -4.3627   -9.4507   12.8689 H   0  0  0  0  0  0  0  0  0  0  0  0  # atno 5632 bound_to 5617
   -8.6930   -7.1637   13.8634 H   0  0  0  0  0  0  0  0  0  0  0  0  # atno 5737 bound_to 5717
   -6.3476   -6.5933   15.2572 H   0  0  0  0  0  0  0  0  0  0  0  0  # atno 5778 bound_to 5767
   -3.2209   -6.6598   14.3308 H   0  0  0  0  0  0  0  0  0  0  0  0  # atno 5782 bound_to 5772
  -10.0561   -1.7870   14.7916 H   0  0  0  0  0  0  0  0  0  0  0  0  # atno 5955 bound_to 5918
   -6.9834   -0.5983   14.1371 H   0  0  0  0  0  0  0  0  0  0  0  0  # atno 6027 bound_to 5990
   -8.1330    1.3493   12.7291 H   0  0  0  0  0  0  0  0  0  0  0  0  # atno 6075 bound_to 6056
   -9.9751    2.6925   11.5579 H   0  0  0  0  0  0  0  0  0  0  0  0  # atno 6112 bound_to 6105
  -12.1539    1.7723   11.5185 H   0  0  0  0  0  0  0  0  0  0  0  0  # atno 6164 bound_to 6140
  -16.0800  -13.1302   18.3111 H   0  0  0  0  0  0  0  0  0  0  0  0  # atno 7745 bound_to 7723
  -12.6860  -11.8133   24.2558 H   0  0  0  0  0  0  0  0  0  0  0  0  # atno 7755 bound_to 7731
  -12.1224  -13.3417   24.5617 H   0  0  0  0  0  0  0  0  0  0  0  0  # atno 7756 bound_to 7731
  -11.0819  -12.1653   24.0296 H   0  0  0  0  0  0  0  0  0  0  0  0  # atno 7757 bound_to 7731
  -10.6367   -9.2777   17.6656 H   0  0  0  0  0  0  0  0  0  0  0  0  # atno 7846 bound_to 7831
  -11.0895  -12.6455   17.7022 H   0  0  0  0  0  0  0  0  0  0  0  0  # atno 7884 bound_to 7874
  -10.5557  -12.7776   15.3772 H   0  0  0  0  0  0  0  0  0  0  0  0  # atno 7924 bound_to 7916
  -13.0545  -22.3178   24.0386 H   0  0  0  0  0  0  0  0  0  0  0  0  # atno 8650 bound_to 8630
  -20.6841  -21.2447   30.8539 H   0  0  0  0  0  0  0  0  0  0  0  0  # atno 9263 bound_to 9233
  -20.5171  -18.9590   28.6763 H   0  0  0  0  0  0  0  0  0  0  0  0  # atno 9302 bound_to 9286
  -17.3435  -16.4914   28.0743 H   0  0  0  0  0  0  0  0  0  0  0  0  # atno 9325 bound_to 9315
  -17.8572  -13.5814   25.0452 H   0  0  0  0  0  0  0  0  0  0  0  0  # atno 9363 bound_to 9342
  -14.5058  -13.2659   23.5873 H   0  0  0  0  0  0  0  0  0  0  0  0  # atno 9369 bound_to 9348
  -18.1045   -7.8429   26.3906 H   0  0  0  0  0  0  0  0  0  0  0  0  # atno 9451 bound_to 9430
  -19.2795   -8.7612   23.2595 H   0  0  0  0  0  0  0  0  0  0  0  0  # atno 9511 bound_to 9481
  -17.0294   -8.1406   17.2335 H   0  0  0  0  0  0  0  0  0  0  0  0  # atno 9519 bound_to 9492
  -21.6613  -11.1990   23.5085 H   0  0  0  0  0  0  0  0  0  0  0  0  # atno 9566 bound_to 9536
  -24.3056    1.0060   18.8263 H   0  0  0  0  0  0  0  0  0  0  0  0  # atno 10737 bound_to 10719
  -17.7853    0.7337   14.9831 H   0  0  0  0  0  0  0  0  0  0  0  0  # atno 10918 bound_to 10911
  -17.2003   -0.0521   16.3681 H   0  0  0  0  0  0  0  0  0  0  0  0  # atno 10969 bound_to 10948
  -21.4788    5.3194   16.6511 H   0  0  0  0  0  0  0  0  0  0  0  0  # atno 10977 bound_to 10959
  -21.8275   -2.6598   22.3320 H   0  0  0  0  0  0  0  0  0  0  0  0  # atno 11113 bound_to 11093
  -21.2031   -0.8618   24.5776 H   0  0  0  0  0  0  0  0  0  0  0  0  # atno 11173 bound_to 11153
  -19.5393   -1.4785   28.3826 H   0  0  0  0  0  0  0  0  0  0  0  0  # atno 11211 bound_to 11201
  -17.6271    1.4626   30.7416 H   0  0  0  0  0  0  0  0  0  0  0  0  # atno 11249 bound_to 11237
  -17.7363   -1.3619   32.2020 H   0  0  0  0  0  0  0  0  0  0  0  0  # atno 11292 bound_to 11275
  -19.9716   -5.8532   33.2492 H   0  0  0  0  0  0  0  0  0  0  0  0  # atno 11385 bound_to 11366
  -22.7658   -3.9314   31.7387 H   0  0  0  0  0  0  0  0  0  0  0  0  # atno 11493 bound_to 11474
  -18.6797   -9.9258   31.3324 H   0  0  0  0  0  0  0  0  0  0  0  0  # atno 11568 bound_to 11550
  -25.0114    2.0573   29.1251 H   0  0  0  0  0  0  0  0  0  0  0  0  # atno 11673 bound_to 11649
  -23.8376    2.9500   28.3671 H   0  0  0  0  0  0  0  0  0  0  0  0  # atno 11674 bound_to 11649
  -25.2738    2.6459   27.5973 H   0  0  0  0  0  0  0  0  0  0  0  0  # atno 11675 bound_to 11649
   -8.3880    9.3009   26.8662 H   0  0  0  0  0  0  0  0  0  0  0  0  # atno 11686 bound_to 11631
   -9.3956    8.1027   26.3234 H   0  0  0  0  0  0  0  0  0  0  0  0  # atno 11687 bound_to 11631
   -8.0565    8.5205   25.4416 H   0  0  0  0  0  0  0  0  0  0  0  0  # atno 11688 bound_to 11631
  -13.1915   17.0055   22.9006 H   0  0  0  0  0  0  0  0  0  0  0  0  # atno 11826 bound_to 11799
  -16.9904   14.8796   24.7203 H   0  0  0  0  0  0  0  0  0  0  0  0  # atno 11911 bound_to 11856
  -18.3474   15.7271   25.1543 H   0  0  0  0  0  0  0  0  0  0  0  0  # atno 11912 bound_to 11856
  -17.4021   16.2612   23.9014 H   0  0  0  0  0  0  0  0  0  0  0  0  # atno 11913 bound_to 11856
  -28.2748    1.3142   20.6043 H   0  0  0  0  0  0  0  0  0  0  0  0  # atno 12008 bound_to 11984
  -27.8359    2.3535   17.2619 H   0  0  0  0  0  0  0  0  0  0  0  0  # atno 12076 bound_to 12056
  -25.4226    7.4221   13.6674 H   0  0  0  0  0  0  0  0  0  0  0  0  # atno 12159 bound_to 12148
    1.9484   -8.7209   17.6414 H   0  0  0  0  0  0  0  0  0  0  0  0  # atno 15411 bound_to 15403
   -1.4249   -9.1907   21.2376 H   0  0  0  0  0  0  0  0  0  0  0  0  # atno 15475 bound_to 15466
  -12.3241   15.7642   22.3050 LP  0  0  0  0  0  0  0  0  0  0  0  0  # atno 16466 bound_to 11799
  -13.3769   15.5158   23.5284 LP  0  0  0  0  0  0  0  0  0  0  0  0  # atno 16467 bound_to 11799
  -21.9997    5.4521   18.1871 LP  0  0  0  0  0  0  0  0  0  0  0  0  # atno 16468 bound_to 10959
  -22.5213    4.2218   17.2486 LP  0  0  0  0  0  0  0  0  0  0  0  0  # atno 16469 bound_to 10959
  -18.0389    3.7305   14.0038 LP  0  0  0  0  0  0  0  0  0  0  0  0  # atno 16472 bound_to 10886
  -16.6665    3.2067   14.9215 LP  0  0  0  0  0  0  0  0  0  0  0  0  # atno 16473 bound_to 10886
  -16.4816    1.4904   16.7887 LP  0  0  0  0  0  0  0  0  0  0  0  0  # atno 16474 bound_to 10948
  -20.0305   -0.5224   21.6913 LP  0  0  0  0  0  0  0  0  0  0  0  0  # atno 16475 bound_to 11004
  -21.2659    0.0953   20.6462 LP  0  0  0  0  0  0  0  0  0  0  0  0  # atno 16476 bound_to 11004
  -14.6732    0.9031   18.1864 LP  0  0  0  0  0  0  0  0  0  0  0  0  # atno 16477 bound_to 10914
  -13.8377    1.4123   16.7572 LP  0  0  0  0  0  0  0  0  0  0  0  0  # atno 16478 bound_to 10914
  -20.1137   -0.9811   17.9783 LP  0  0  0  0  0  0  0  0  0  0  0  0  # atno 16479 bound_to 10951
  -18.9697   -0.4240   16.8032 LP  0  0  0  0  0  0  0  0  0  0  0  0  # atno 16480 bound_to 10951
  -24.5118    1.6746   17.3572 LP  0  0  0  0  0  0  0  0  0  0  0  0  # atno 16482 bound_to 10719
  -23.0351    1.6675   18.0544 LP  0  0  0  0  0  0  0  0  0  0  0  0  # atno 16483 bound_to 10719
  -26.4263    0.9277   18.3877 LP  0  0  0  0  0  0  0  0  0  0  0  0  # atno 16484 bound_to 11987
  -25.5482    2.0768   17.4346 LP  0  0  0  0  0  0  0  0  0  0  0  0  # atno 16485 bound_to 11987
  -27.4681    5.6760   14.4878 LP  0  0  0  0  0  0  0  0  0  0  0  0  # atno 16486 bound_to 12059
  -26.7702    5.9350   16.0517 LP  0  0  0  0  0  0  0  0  0  0  0  0  # atno 16487 bound_to 12059
  -24.0750   -0.0156   22.7270 LP  0  0  0  0  0  0  0  0  0  0  0  0  # atno 16490 bound_to 11046
  -25.3101   -1.1003   22.1811 LP  0  0  0  0  0  0  0  0  0  0  0  0  # atno 16491 bound_to 11046
  -28.1788    4.0218   16.8740 LP  0  0  0  0  0  0  0  0  0  0  0  0  # atno 16492 bound_to 12056
  -17.0607    0.7699   13.3898 LP  0  0  0  0  0  0  0  0  0  0  0  0  # atno 16493 bound_to 10911
  -13.3605    1.5272   14.4662 LP  0  0  0  0  0  0  0  0  0  0  0  0  # atno 16500 bound_to 6108
  -13.0174    0.2388   13.3606 LP  0  0  0  0  0  0  0  0  0  0  0  0  # atno 16501 bound_to 6108
  -13.2479    3.0811   11.9001 LP  0  0  0  0  0  0  0  0  0  0  0  0  # atno 16502 bound_to 6140
   -9.3621    2.0878   15.2118 LP  0  0  0  0  0  0  0  0  0  0  0  0  # atno 16503 bound_to 5921
   -7.7590    2.5330   15.6933 LP  0  0  0  0  0  0  0  0  0  0  0  0  # atno 16504 bound_to 5921
   -9.7067    1.6467   12.9360 LP  0  0  0  0  0  0  0  0  0  0  0  0  # atno 16505 bound_to 6105
  -10.3744    4.1965   10.2160 LP  0  0  0  0  0  0  0  0  0  0  0  0  # atno 16506 bound_to 6059
   -9.7012    4.8387   11.6770 LP  0  0  0  0  0  0  0  0  0  0  0  0  # atno 16507 bound_to 6059
  -10.8564    0.0606   12.8782 LP  0  0  0  0  0  0  0  0  0  0  0  0  # atno 16510 bound_to 5858
   -9.6593    0.7119   13.9472 LP  0  0  0  0  0  0  0  0  0  0  0  0  # atno 16511 bound_to 5858
   -8.3509   -1.9564   14.4553 LP  0  0  0  0  0  0  0  0  0  0  0  0  # atno 16516 bound_to 5918
   -7.6459    0.6546   15.1694 LP  0  0  0  0  0  0  0  0  0  0  0  0  # atno 16517 bound_to 5990
   -6.5160    3.6511   11.5291 LP  0  0  0  0  0  0  0  0  0  0  0  0  # atno 16518 bound_to 5993
   -6.9084    3.9251   13.1937 LP  0  0  0  0  0  0  0  0  0  0  0  0  # atno 16519 bound_to 5993
   -6.9395    0.9577   11.5235 LP  0  0  0  0  0  0  0  0  0  0  0  0  # atno 16520 bound_to 6056
  -21.7310    0.2792   27.0701 LP  0  0  0  0  0  0  0  0  0  0  0  0  # atno 16523 bound_to 11156
  -20.5549    1.4529   27.5591 LP  0  0  0  0  0  0  0  0  0  0  0  0  # atno 16524 bound_to 11156
  -18.7194   -0.2703   27.4120 LP  0  0  0  0  0  0  0  0  0  0  0  0  # atno 16525 bound_to 11201
  -16.3640   -1.3971   30.2250 LP  0  0  0  0  0  0  0  0  0  0  0  0  # atno 16528 bound_to 11204
  -16.5199   -0.5172   28.7412 LP  0  0  0  0  0  0  0  0  0  0  0  0  # atno 16529 bound_to 11204
  -18.1948   -0.0308   31.4503 LP  0  0  0  0  0  0  0  0  0  0  0  0  # atno 16530 bound_to 11237
  -21.7875   -1.9019   25.8587 LP  0  0  0  0  0  0  0  0  0  0  0  0  # atno 16533 bound_to 11153
  -21.1505   -4.3600   24.8113 LP  0  0  0  0  0  0  0  0  0  0  0  0  # atno 16540 bound_to 11096
  -19.7764   -3.3692   24.4507 LP  0  0  0  0  0  0  0  0  0  0  0  0  # atno 16541 bound_to 11096
  -16.0296   -2.0478   13.8077 LP  0  0  0  0  0  0  0  0  0  0  0  0  # atno 16544 bound_to 10768
  -16.9734   -1.3231   15.0663 LP  0  0  0  0  0  0  0  0  0  0  0  0  # atno 16545 bound_to 10768
  -14.6010   -1.7641   33.4208 LP  0  0  0  0  0  0  0  0  0  0  0  0  # atno 16552 bound_to 11240
  -14.6473   -1.7023   31.6905 LP  0  0  0  0  0  0  0  0  0  0  0  0  # atno 16553 bound_to 11240
  -16.7806   -0.6850   33.4992 LP  0  0  0  0  0  0  0  0  0  0  0  0  # atno 16554 bound_to 11275
  -19.1764   -3.3761   31.4999 LP  0  0  0  0  0  0  0  0  0  0  0  0  # atno 16558 bound_to 11278
  -19.9594   -3.3493   33.0447 LP  0  0  0  0  0  0  0  0  0  0  0  0  # atno 16559 bound_to 11278
  -18.8881   -9.2671   25.7438 LP  0  0  0  0  0  0  0  0  0  0  0  0  # atno 16561 bound_to 9430
  -20.5917   -6.2814   31.0906 LP  0  0  0  0  0  0  0  0  0  0  0  0  # atno 16562 bound_to 11325
  -21.8071   -6.2664   32.3245 LP  0  0  0  0  0  0  0  0  0  0  0  0  # atno 16563 bound_to 11325
  -21.3669   -2.9756   31.2917 LP  0  0  0  0  0  0  0  0  0  0  0  0  # atno 16564 bound_to 11474
  -19.5253   -5.8765   34.9303 LP  0  0  0  0  0  0  0  0  0  0  0  0  # atno 16565 bound_to 11366
  -21.2375   -9.3918   26.2311 LP  0  0  0  0  0  0  0  0  0  0  0  0  # atno 16566 bound_to 9387
  -21.0378   -8.1007   27.3682 LP  0  0  0  0  0  0  0  0  0  0  0  0  # atno 16567 bound_to 9387
  -19.4168  -11.3732   31.2341 LP  0  0  0  0  0  0  0  0  0  0  0  0  # atno 16568 bound_to 11550
  -19.0735  -10.7260   32.6935 LP  0  0  0  0  0  0  0  0  0  0  0  0  # atno 16569 bound_to 11550
  -19.2895  -12.0072   25.6034 LP  0  0  0  0  0  0  0  0  0  0  0  0  # atno 16570 bound_to 9345
  -18.5795  -10.8119   24.5704 LP  0  0  0  0  0  0  0  0  0  0  0  0  # atno 16571 bound_to 9345
  -14.9730  -13.9026   25.0099 LP  0  0  0  0  0  0  0  0  0  0  0  0  # atno 16572 bound_to 9348
  -13.7137  -12.8647   24.9508 LP  0  0  0  0  0  0  0  0  0  0  0  0  # atno 16573 bound_to 9348
  -19.8725   -9.7704   24.5597 LP  0  0  0  0  0  0  0  0  0  0  0  0  # atno 16574 bound_to 9481
   -7.6654   -3.4290   15.9659 LP  0  0  0  0  0  0  0  0  0  0  0  0  # atno 16579 bound_to 5720
   -9.2742   -4.0029   15.6788 LP  0  0  0  0  0  0  0  0  0  0  0  0  # atno 16580 bound_to 5720
   -2.1957  -10.1190   22.3292 LP  0  0  0  0  0  0  0  0  0  0  0  0  # atno 16587 bound_to 15466
   -1.5914  -10.7865   20.9669 LP  0  0  0  0  0  0  0  0  0  0  0  0  # atno 16588 bound_to 15466
  -11.3343  -10.8730   17.4418 LP  0  0  0  0  0  0  0  0  0  0  0  0  # atno 16591 bound_to 7831
   -3.9982  -13.8891   26.8859 LP  0  0  0  0  0  0  0  0  0  0  0  0  # atno 16592 bound_to 1821
   -2.6784  -13.0672   26.1227 LP  0  0  0  0  0  0  0  0  0  0  0  0  # atno 16593 bound_to 1821
   -7.9166  -13.8263   17.8158 LP  0  0  0  0  0  0  0  0  0  0  0  0  # atno 16594 bound_to 7834
   -7.2224  -12.2807   18.1752 LP  0  0  0  0  0  0  0  0  0  0  0  0  # atno 16595 bound_to 7834
   -9.0576   -8.4821   14.9637 LP  0  0  0  0  0  0  0  0  0  0  0  0  # atno 16596 bound_to 5717
   -7.5075   -5.3921   15.7819 LP  0  0  0  0  0  0  0  0  0  0  0  0  # atno 16597 bound_to 5767
   -0.0484  -12.5131   18.7519 LP  0  0  0  0  0  0  0  0  0  0  0  0  # atno 16600 bound_to 1745
   -1.1473  -13.2408   19.8757 LP  0  0  0  0  0  0  0  0  0  0  0  0  # atno 16601 bound_to 1745
   -1.7980  -13.9411   24.1097 LP  0  0  0  0  0  0  0  0  0  0  0  0  # atno 16602 bound_to 1818
   -3.8670   -5.5782   13.3009 LP  0  0  0  0  0  0  0  0  0  0  0  0  # atno 16603 bound_to 5772
   -4.8286   -6.6440   14.0793 LP  0  0  0  0  0  0  0  0  0  0  0  0  # atno 16604 bound_to 5772
    0.5922   -7.6333   17.4591 LP  0  0  0  0  0  0  0  0  0  0  0  0  # atno 16605 bound_to 15403
    0.8013  -14.9620   20.7847 LP  0  0  0  0  0  0  0  0  0  0  0  0  # atno 16606 bound_to 1791
   -3.9026  -10.7705   13.9246 LP  0  0  0  0  0  0  0  0  0  0  0  0  # atno 16607 bound_to 5617
   -6.7886   -7.2659   12.9605 LP  0  0  0  0  0  0  0  0  0  0  0  0  # atno 16608 bound_to 5620
   -5.2829   -7.9001   13.5355 LP  0  0  0  0  0  0  0  0  0  0  0  0  # atno 16609 bound_to 5620
  -10.0337  -11.1179   15.0465 LP  0  0  0  0  0  0  0  0  0  0  0  0  # atno 16610 bound_to 7788
   -9.2991   -9.5873   15.3899 LP  0  0  0  0  0  0  0  0  0  0  0  0  # atno 16611 bound_to 7788
   -9.3812  -12.4150   17.4363 LP  0  0  0  0  0  0  0  0  0  0  0  0  # atno 16612 bound_to 7874
    1.1923  -15.8667   23.2073 LP  0  0  0  0  0  0  0  0  0  0  0  0  # atno 16613 bound_to 1794
   -0.2345  -16.6972   23.7312 LP  0  0  0  0  0  0  0  0  0  0  0  0  # atno 16614 bound_to 1794
   -0.6294  -13.4449   28.1698 LP  0  0  0  0  0  0  0  0  0  0  0  0  # atno 16615 bound_to 1824
    0.2927  -14.6153   28.8381 LP  0  0  0  0  0  0  0  0  0  0  0  0  # atno 16616 bound_to 1824
   -1.8982  -15.7859   27.4717 LP  0  0  0  0  0  0  0  0  0  0  0  0  # atno 16617 bound_to 1854
  -15.4182  -13.8391   27.5260 LP  0  0  0  0  0  0  0  0  0  0  0  0  # atno 16622 bound_to 9318
  -15.7118  -15.5311   27.7517 LP  0  0  0  0  0  0  0  0  0  0  0  0  # atno 16623 bound_to 9318
  -16.7328  -14.3833   26.1195 LP  0  0  0  0  0  0  0  0  0  0  0  0  # atno 16624 bound_to 9342
  -21.7944   -7.2645   23.5499 LP  0  0  0  0  0  0  0  0  0  0  0  0  # atno 16627 bound_to 9433
  -21.1535   -7.9358   22.0875 LP  0  0  0  0  0  0  0  0  0  0  0  0  # atno 16628 bound_to 9433
  -16.1251   -7.4821   18.4154 LP  0  0  0  0  0  0  0  0  0  0  0  0  # atno 16629 bound_to 9492
  -17.6079   -6.8819   18.0876 LP  0  0  0  0  0  0  0  0  0  0  0  0  # atno 16630 bound_to 9492
  -17.7232  -12.1953   19.0440 LP  0  0  0  0  0  0  0  0  0  0  0  0  # atno 16631 bound_to 7667
  -16.9059  -13.0011   20.3412 LP  0  0  0  0  0  0  0  0  0  0  0  0  # atno 16632 bound_to 7667
  -14.4608  -13.5762   17.8051 LP  0  0  0  0  0  0  0  0  0  0  0  0  # atno 16634 bound_to 7723
  -13.1987  -12.3326   15.6933 LP  0  0  0  0  0  0  0  0  0  0  0  0  # atno 16635 bound_to 7726
  -12.4350  -12.7840   17.1810 LP  0  0  0  0  0  0  0  0  0  0  0  0  # atno 16636 bound_to 7726
  -20.4302   -5.9608   15.6120 LP  0  0  0  0  0  0  0  0  0  0  0  0  # atno 16637 bound_to 10539
  -20.3681   -5.7702   17.3324 LP  0  0  0  0  0  0  0  0  0  0  0  0  # atno 16638 bound_to 10539
   -5.8589  -15.7585   31.4341 LP  0  0  0  0  0  0  0  0  0  0  0  0  # atno 16639 bound_to 1884
   -5.2311  -15.3277   32.8787 LP  0  0  0  0  0  0  0  0  0  0  0  0  # atno 16640 bound_to 1884
  -17.8391  -17.7705   26.9842 LP  0  0  0  0  0  0  0  0  0  0  0  0  # atno 16641 bound_to 9315
   -4.4048  -16.0742   30.0865 LP  0  0  0  0  0  0  0  0  0  0  0  0  # atno 16642 bound_to 1879
   -1.7019  -17.3741   29.1167 LP  0  0  0  0  0  0  0  0  0  0  0  0  # atno 16643 bound_to 1857
   -1.9245  -16.3304   30.4809 LP  0  0  0  0  0  0  0  0  0  0  0  0  # atno 16644 bound_to 1857
  -18.6263  -17.8922   23.4671 LP  0  0  0  0  0  0  0  0  0  0  0  0  # atno 16645 bound_to 7565
  -17.1183  -17.1808   22.9981 LP  0  0  0  0  0  0  0  0  0  0  0  0  # atno 16646 bound_to 7565
  -19.7715  -17.2046   25.9491 LP  0  0  0  0  0  0  0  0  0  0  0  0  # atno 16647 bound_to 9289
  -20.5715  -17.7260   27.3942 LP  0  0  0  0  0  0  0  0  0  0  0  0  # atno 16648 bound_to 9289
  -18.1560  -19.7744   31.2013 LP  0  0  0  0  0  0  0  0  0  0  0  0  # atno 16649 bound_to 9236
  -18.6899  -18.3409   32.0137 LP  0  0  0  0  0  0  0  0  0  0  0  0  # atno 16650 bound_to 9236
  -19.7613  -18.9241   30.2521 LP  0  0  0  0  0  0  0  0  0  0  0  0  # atno 16653 bound_to 9286
  -22.2259  -20.9974   31.6425 LP  0  0  0  0  0  0  0  0  0  0  0  0  # atno 16654 bound_to 9233
  -10.8302  -22.7122   33.6913 LP  0  0  0  0  0  0  0  0  0  0  0  0  # atno 16655 bound_to 3365
  -12.0442  -23.8506   34.1712 LP  0  0  0  0  0  0  0  0  0  0  0  0  # atno 16656 bound_to 3365
   -8.2708  -24.6129   37.0348 LP  0  0  0  0  0  0  0  0  0  0  0  0  # atno 16657 bound_to 3362
   -5.2479  -19.5128   30.9616 LP  0  0  0  0  0  0  0  0  0  0  0  0  # atno 16658 bound_to 1922

> <Gold.Score>
     Fitness  S(hb_ext) S(vdw_ext)  S(hb_int)    S(int)      intcor
     24.51       0.00      18.51       0.00      -0.94      -0.77

> <Gold.Goldscore.Fitness>
24.5100

> <Gold.Goldscore.Internal.Vdw>
-1.2632

> <Gold.Goldscore.Internal.Torsion>
-0.4455

> <Gold.Goldscore.External.Vdw>
18.5086

> <Gold.Goldscore.Internal.HBond>
0.0000

> <Gold.Goldscore.External.HBond>
0.0000

> <Gold.Goldscore.Internal.Correction>
-0.7693

> <Gold.Goldscore.Internal.Vdw.Weighted>
-1.2632

> <Gold.Goldscore.Internal.Torsion.Weighted>
-0.4455

> <Gold.Goldscore.External.Vdw.Weighted>
25.4493

> <Gold.Goldscore.Internal.HBond.Weighted>
0.0000

> <Gold.Goldscore.External.HBond.Weighted>
0.0000

> <Gold.Goldscore.Internal.Correction.Weighted>
-0.7693

> <Gold.Rescore>
     Score     S(PLP)   S(hbond)     S(cho)   S(metal)  DE(clash)   DE(tors)     intcor
     22.92     -25.11       0.00       0.00       0.00       0.00       1.09       ----

> <Gold.PLP.Fitness>
22.9182

> <Gold.PLP.PLP>
-25.1066

> <Gold.PLP.part.hbond>
-1.5116

> <Gold.PLP.part.metal>
0.0000

> <Gold.PLP.part.buried>
-0.9920

> <Gold.PLP.part.nonpolar>
-23.9092

> <Gold.PLP.part.repulsive>
0.3322

> <Gold.PLP.ligand.clash>
0.0000

> <Gold.PLP.ligand.torsion>
1.0942

> <Gold.PLP.Chemscore.Hbond>
0.0000

> <Gold.PLP.Chemscore.CHOScore>
0.0000

> <Gold.PLP.Chemscore.Metal>
0.0000

> <Gold.PLP.Chemscore.Internal.Correction>
   9.000000E+99

#       Name:                CT1002167954
#       Creating user name   hitesit
#       Creation time:       Sun Apr 16 22:51:51 2023


#       File generated by GOLD software.
#

@<TRIPOS>MOLECULE
CT1002167954|ligand_prepared|mol2|1|dock2
    29    30     1
SMALL
NO_CHARGES


@<TRIPOS>ATOM
      1 C1         -13.1782   1.3839  21.4781 C.3            1 RES1               0.0000
      2 C2         -12.8397   1.9780  20.0957 C.ar           1 RES1               0.0000
      3 C3         -12.7426  -0.0779  21.4345 C.2            1 RES1               0.0000
      4 C4         -12.4252   2.2272  22.5010 C.2            1 RES1               0.0000
      5 C5         -14.6832   1.4376  21.8297 C.3            1 RES1               0.0000
      6 C6         -13.4279   3.1658  19.6716 C.ar           1 RES1               0.0000
      7 C7         -11.9406   1.3524  19.2361 C.ar           1 RES1               0.0000
      8 N8         -11.6163  -0.4223  22.1221 N.am           1 RES1               0.0000
      9 O9         -13.3557  -0.9079  20.7747 O.2            1 RES1               0.0000
     10 N10        -11.4269   1.6241  23.2203 N.am           1 RES1               0.0000
     11 O11        -12.6761   3.4129  22.6787 O.2            1 RES1               0.0000
     12 C12        -15.0505   0.6466  23.0753 C.3            1 RES1               0.0000
     13 C13        -13.1261   3.7100  18.4342 C.ar           1 RES1               0.0000
     14 C14        -11.6404   1.8982  17.9990 C.ar           1 RES1               0.0000
     15 C15        -10.9678   0.3458  23.0555 C.2            1 RES1               0.0000
     16 C16        -12.2320   3.0770  17.5974 C.ar           1 RES1               0.0000
     17 O17        -10.0288  -0.1080  23.7032 O.2            1 RES1               0.0000
     18 H18        -14.9740   2.4849  21.9780 H              1 RES1               0.0000
     19 H19        -15.2583   1.0469  20.9811 H              1 RES1               0.0000
     20 H20        -14.1358   3.6769  20.3155 H              1 RES1               0.0000
     21 H21        -11.4640   0.4236  19.5306 H              1 RES1               0.0000
     22 H22        -11.2195  -1.3352  21.9238 H              1 RES1               0.0000
     23 H23        -10.9852   2.1796  23.9461 H              1 RES1               0.0000
     24 H24        -16.1173   0.7177  23.2768 H              1 RES1               0.0000
     25 H25        -14.7982  -0.4047  22.9530 H              1 RES1               0.0000
     26 H26        -14.5156   1.0248  23.9440 H              1 RES1               0.0000
     27 H27        -13.5954   4.6372  18.1222 H              1 RES1               0.0000
     28 H28        -10.9366   1.3962  17.3434 H              1 RES1               0.0000
     29 H29        -11.9954   3.5037  16.6283 H              1 RES1               0.0000
@<TRIPOS>BOND
    1    1    2 1     
    2    1    3 1     
    3    1    4 1     
    4    1    5 1     
    5    2    6 ar    
    6    2    7 ar    
    7    3    8 1     
    8    3    9 2     
    9    4   10 1     
   10    4   11 2     
   11    5   12 1     
   12    5   18 1     
   13    5   19 1     
   14    6   13 ar    
   15    6   20 1     
   16    7   14 ar    
   17    7   21 1     
   18    8   15 1     
   19    8   22 1     
   20   10   15 1     
   21   10   23 1     
   22   12   24 1     
   23   12   25 1     
   24   12   26 1     
   25   13   16 ar    
   26   13   27 1     
   27   14   16 ar    
   28   14   28 1     
   29   15   17 2     
   30   16   29 1     
@<TRIPOS>SUBSTRUCTURE
      1 RES1           1
@<TRIPOS>SET
DONOR_HYDROGENS      STATIC     ATOMS    <user>   **** ""
2 22 23
ATOM$RED        STATIC     ATOMS    COLORGROUP SYSTEM
2 22 23
@<TRIPOS>COMMENT
> <Gold.Version>
2022.3.0

> <Gold.Id.Protein>
unknown|3mvj_clean|pdb

> <Gold.Protein.RotatedTorsions>
[ 11826 11799 11798 11795 ] final -177.65 input   60.01 | X-H torsion
[ 11911 11856 11855 11854 ] final   36.11 input   60.02 | X-H torsion
[ 10977 10959 10958 10956 ] final  131.72 input   60.00 | X-H torsion
[ 10969 10948 10949 10950 ] final  -15.79 input   32.02 | X-H torsion
[ 10737 10719 10718 10716 ] final -122.80 input   60.01 | X-H torsion
[ 12076 12056 12057 12058 ] final -136.67 input   63.02 | X-H torsion
[ 10918 10911 10912 10913 ] final  -25.40 input  -92.90 | X-H torsion
[ 6164 6140 6141 6142 ] final   71.92 input   39.58 | X-H torsion
[ 6112 6105 6106 6107 ] final -104.50 input  -69.34 | X-H torsion
[ 5955 5918 5919 5920 ] final -164.42 input  125.26 | X-H torsion
[ 6027 5990 5991 5992 ] final   21.80 input  110.40 | X-H torsion
[ 6075 6056 6057 6058 ] final  111.26 input  107.04 | X-H torsion
[ 11686 11631 11630 11629 ] final  -11.70 input   60.02 | X-H torsion
[ 11211 11201 11202 11203 ] final  -45.84 input   18.84 | X-H torsion
[ 11249 11237 11238 11239 ] final   25.51 input  111.29 | X-H torsion
[ 11173 11153 11154 11155 ] final -163.56 input   30.50 | X-H torsion
[ 11292 11275 11276 11277 ] final  107.75 input   58.53 | X-H torsion
[ 9451 9430 9431 9432 ] final -169.79 input  110.06 | X-H torsion
[ 11493 11474 11475 11476 ] final  -19.05 input  115.95 | X-H torsion
[ 11385 11366 11367 11368 ] final  -25.64 input  117.79 | X-H torsion
[ 11568 11550 11549 11547 ] final  112.00 input   59.97 | X-H torsion
[ 9369 9348 9346 9343 ] final -145.30 input   60.02 | X-H torsion
[ 9511 9481 9482 9483 ] final  -29.69 input   75.78 | X-H torsion
[ 15475 15466 15465 15463 ] final -163.59 input   60.00 | X-H torsion
[ 7755 7731 7730 7729 ] final  -51.07 input   60.02 | X-H torsion
[ 7846 7831 7832 7833 ] final -130.71 input  113.97 | X-H torsion
[ 5737 5717 5718 5719 ] final   62.00 input  137.93 | X-H torsion
[ 5778 5767 5768 5769 ] final    8.17 input  116.46 | X-H torsion
[ 1839 1818 1819 1820 ] final -110.99 input   43.70 | X-H torsion
[ 5782 5772 5771 5768 ] final -163.62 input   59.97 | X-H torsion
[ 15411 15403 15404 15405 ] final   47.40 input  102.24 | X-H torsion
[ 1801 1791 1792 1793 ] final   -2.11 input  -10.55 | X-H torsion
[ 5632 5617 5618 5619 ] final -166.81 input   93.34 | X-H torsion
[ 7884 7874 7875 7876 ] final -114.78 input   68.03 | X-H torsion
[ 1845 1824 1822 1819 ] final -159.36 input   60.02 | X-H torsion
[ 1864 1854 1855 1856 ] final  -70.47 input   57.50 | X-H torsion
[ 9363 9342 9343 9344 ] final  137.15 input   55.58 | X-H torsion
[ 9519 9492 9491 9489 ] final  -48.26 input   60.02 | X-H torsion
[ 7745 7723 7724 7725 ] final  -48.28 input   17.81 | X-H torsion
[ 1896 1884 1883 1880 ] final -100.30 input   60.01 | X-H torsion
[ 9325 9315 9316 9317 ] final   11.60 input  -36.21 | X-H torsion
[ 1892 1879 1880 1881 ] final  131.96 input   98.21 | X-H torsion
[ 9302 9286 9287 9288 ] final  -24.87 input   37.00 | X-H torsion
[ 9263 9233 9234 9235 ] final  -21.39 input   95.32 | X-H torsion
[ 3370 3362 3363 3364 ] final  -31.45 input   97.92 | X-H torsion
[ 1947 1922 1923 1924 ] final   -3.85 input  104.43 | X-H torsion
[ 12159 12148 12149 12150 ] final -146.92 input  116.04 | X-H torsion
[ 11673 11649 11648 11647 ] final  -31.41 input   59.99 | X-H torsion
[ 12008 11984 11985 11986 ] final  -69.74 input   61.04 | X-H torsion
[ 11113 11093 11094 11095 ] final  143.56 input   39.50 | X-H torsion
[ 7924 7916 7917 7918 ] final -137.24 input   66.66 | X-H torsion
[ 8650 8630 8631 8632 ] final -127.19 input   75.31 | X-H torsion
[ 9566 9536 9537 9538 ] final  133.03 input  103.50 | X-H torsion
[ 16472 10886 10885 10884 ] final  -23.91 input    0.00 | X-H torsion
[ 16475 11004 11003 11002 ] final  127.97 input    0.00 | X-H torsion
[ 16477 10914 10913 10912 ] final  139.22 input    0.00 | X-H torsion
[ 16479 10951 10950 10949 ] final  153.28 input   -0.00 | X-H torsion
[ 16484 11987 11986 11985 ] final -178.59 input    0.00 | X-H torsion
[ 16486 12059 12058 12057 ] final   42.19 input   -0.00 | X-H torsion
[ 16490 11046 11045 11044 ] final  -22.50 input    0.00 | X-H torsion
[ 16500 6108 6107 6106 ] final -108.28 input    0.00 | X-H torsion
[ 16503 5921 5920 5919 ] final   73.12 input   -0.00 | X-H torsion
[ 16506 6059 6058 6057 ] final  -45.00 input    0.00 | X-H torsion
[ 16510 5858 5857 5856 ] final -158.91 input    0.00 | X-H torsion
[ 16518 5993 5992 5991 ] final   60.47 input   -0.00 | X-H torsion
[ 16523 11156 11155 11154 ] final  -67.50 input    0.00 | X-H torsion
[ 16528 11204 11203 11202 ] final   95.62 input    0.00 | X-H torsion
[ 16540 11096 11095 11094 ] final -156.09 input   -0.00 | X-H torsion
[ 16544 10768 10767 10766 ] final   73.12 input   -0.00 | X-H torsion
[ 16552 11240 11239 11238 ] final   56.25 input    0.00 | X-H torsion
[ 16558 11278 11277 11276 ] final   52.03 input   -0.00 | X-H torsion
[ 16562 11325 11324 11323 ] final  -52.03 input   -0.00 | X-H torsion
[ 16566 9387 9386 9385 ] final   50.62 input   -0.00 | X-H torsion
[ 16570 9345 9344 9343 ] final -112.50 input    0.00 | X-H torsion
[ 16579 5720 5719 5718 ] final   85.78 input    0.00 | X-H torsion
[ 16592 1821 1820 1819 ] final  -61.87 input    0.00 | X-H torsion
[ 16594 7834 7833 7832 ] final  -84.37 input    0.00 | X-H torsion
[ 16600 1745 1744 1743 ] final  -82.97 input    0.00 | X-H torsion
[ 16608 5620 5619 5618 ] final  -82.97 input   -0.00 | X-H torsion
[ 16610 7788 7787 7786 ] final   73.12 input   -0.00 | X-H torsion
[ 16613 1794 1793 1792 ] final   28.12 input   -0.00 | X-H torsion
[ 16622 9318 9317 9316 ] final   -0.00 input   -0.00 | X-H torsion
[ 16627 9433 9432 9431 ] final -151.88 input    0.00 | X-H torsion
[ 16631 7667 7666 7665 ] final   -8.44 input   -0.00 | X-H torsion
[ 16635 7726 7725 7724 ] final  -32.34 input    0.00 | X-H torsion
[ 16637 10539 10538 10537 ] final   39.37 input   -0.00 | X-H torsion
[ 16643 1857 1856 1855 ] final  -35.16 input    0.00 | X-H torsion
[ 16645 7565 7564 7563 ] final  -67.50 input    0.00 | X-H torsion
[ 16647 9289 9288 9287 ] final  171.56 input    0.00 | X-H torsion
[ 16649 9236 9235 9234 ] final  -87.19 input    0.00 | X-H torsion
[ 16655 3365 3364 3363 ] final  -85.78 input    0.00 | X-H torsion

> <Gold.Protein.ActiveResidues>
 LEU49   GLY50   THR51   GLY52   SER53   PHE54   VAL57   LEU82   LYS83   GLN84  
 HIS87   GLU127  PHE129  SER130  LEU132  ARG133  ARG134  ILE135  GLY136  ARG137 
 ARG165  ASP166  LEU167  LYS168  PRO169  GLU170  ASN171  LEU172  LEU173  ASP184 
 GLY186  PHE187  TPO197  LEU198  CYS199  GLY200  THR201  PRO202  GLU203  TYR204 
 LEU205  ILE209  ILE210  VAL226  LEU227  TYR229  GLU230  ALA233  GLY234  TYR235 
 PRO236  PRO237  PHE238  PHE239  ALA240  ASP241  GLN242  PRO243  ILE244  GLN245 
 ILE246  TYR247  GLU248  LYS249  ILE250  VAL251  SER252  LYS254  ARG256  PHE257 
 PRO258  SER259  PHE327  ASP328  TYR330 

> <Gold.Protein.RotatedAtoms>
    1.4423  -14.7141   21.6635 H   0  0  0  0  0  0  0  0  0  0  0  0  # atno 1801 bound_to 1791
   -0.8974  -14.7778   23.6830 H   0  0  0  0  0  0  0  0  0  0  0  0  # atno 1839 bound_to 1818
    0.2916  -13.9253   28.6639 H   0  0  0  0  0  0  0  0  0  0  0  0  # atno 1845 bound_to 1824
   -2.1041  -15.3574   27.3306 H   0  0  0  0  0  0  0  0  0  0  0  0  # atno 1864 bound_to 1854
   -5.2897  -16.4801   30.1397 H   0  0  0  0  0  0  0  0  0  0  0  0  # atno 1892 bound_to 1879
   -5.4531  -15.3853   33.1112 H   0  0  0  0  0  0  0  0  0  0  0  0  # atno 1896 bound_to 1884
   -3.6623  -19.0761   30.3573 H   0  0  0  0  0  0  0  0  0  0  0  0  # atno 1947 bound_to 1922
   -8.3978  -25.0235   36.5782 H   0  0  0  0  0  0  0  0  0  0  0  0  # atno 3370 bound_to 3362
   -3.9879  -10.9667   13.6587 H   0  0  0  0  0  0  0  0  0  0  0  0  # atno 5632 bound_to 5617
   -8.0082   -8.0054   14.5765 H   0  0  0  0  0  0  0  0  0  0  0  0  # atno 5737 bound_to 5717
   -7.2894   -5.7786   14.7336 H   0  0  0  0  0  0  0  0  0  0  0  0  # atno 5778 bound_to 5767
   -3.1898   -6.6232   14.3038 H   0  0  0  0  0  0  0  0  0  0  0  0  # atno 5782 bound_to 5772
   -9.7761   -2.2302   15.1802 H   0  0  0  0  0  0  0  0  0  0  0  0  # atno 5955 bound_to 5918
   -7.8691    0.0074   13.9561 H   0  0  0  0  0  0  0  0  0  0  0  0  # atno 6027 bound_to 5990
   -7.8470    0.3985   11.8232 H   0  0  0  0  0  0  0  0  0  0  0  0  # atno 6075 bound_to 6056
   -9.5668    1.8626   13.0520 H   0  0  0  0  0  0  0  0  0  0  0  0  # atno 6112 bound_to 6105
  -12.9959    3.1033   11.2081 H   0  0  0  0  0  0  0  0  0  0  0  0  # atno 6164 bound_to 6140
  -15.2873  -13.2368   17.1646 H   0  0  0  0  0  0  0  0  0  0  0  0  # atno 7745 bound_to 7723
  -11.6594  -11.5827   23.9858 H   0  0  0  0  0  0  0  0  0  0  0  0  # atno 7755 bound_to 7731
  -12.8859  -12.5702   24.5032 H   0  0  0  0  0  0  0  0  0  0  0  0  # atno 7756 bound_to 7731
  -11.3458  -13.1673   24.3583 H   0  0  0  0  0  0  0  0  0  0  0  0  # atno 7757 bound_to 7731
  -10.5140   -9.3892   17.2679 H   0  0  0  0  0  0  0  0  0  0  0  0  # atno 7846 bound_to 7831
   -9.3894  -12.4845   17.8134 H   0  0  0  0  0  0  0  0  0  0  0  0  # atno 7884 bound_to 7874
  -10.5619  -14.3706   15.5057 H   0  0  0  0  0  0  0  0  0  0  0  0  # atno 7924 bound_to 7916
  -13.0101  -22.9689   23.9586 H   0  0  0  0  0  0  0  0  0  0  0  0  # atno 8650 bound_to 8630
  -20.8220  -21.2392   30.6555 H   0  0  0  0  0  0  0  0  0  0  0  0  # atno 9263 bound_to 9233
  -20.4752  -18.1812   29.1759 H   0  0  0  0  0  0  0  0  0  0  0  0  # atno 9302 bound_to 9286
  -17.2172  -16.5257   28.0407 H   0  0  0  0  0  0  0  0  0  0  0  0  # atno 9325 bound_to 9315
  -16.7077  -14.1452   24.9350 H   0  0  0  0  0  0  0  0  0  0  0  0  # atno 9363 bound_to 9342
  -13.7258  -12.7471   24.2527 H   0  0  0  0  0  0  0  0  0  0  0  0  # atno 9369 bound_to 9348
  -18.2815   -7.8313   26.5099 H   0  0  0  0  0  0  0  0  0  0  0  0  # atno 9451 bound_to 9430
  -20.3140   -9.3376   24.4159 H   0  0  0  0  0  0  0  0  0  0  0  0  # atno 9511 bound_to 9481
  -17.1289   -6.7859   18.4756 H   0  0  0  0  0  0  0  0  0  0  0  0  # atno 9519 bound_to 9492
  -20.9330  -10.9401   25.0694 H   0  0  0  0  0  0  0  0  0  0  0  0  # atno 9566 bound_to 9536
  -24.5427    1.0274   18.6725 H   0  0  0  0  0  0  0  0  0  0  0  0  # atno 10737 bound_to 10719
  -17.6878    0.2945   14.8870 H   0  0  0  0  0  0  0  0  0  0  0  0  # atno 10918 bound_to 10911
  -17.3482    0.0361   16.3667 H   0  0  0  0  0  0  0  0  0  0  0  0  # atno 10969 bound_to 10948
  -21.5325    5.7717   17.6085 H   0  0  0  0  0  0  0  0  0  0  0  0  # atno 10977 bound_to 10959
  -23.4322   -2.9074   22.2084 H   0  0  0  0  0  0  0  0  0  0  0  0  # atno 11113 bound_to 11093
  -21.2194   -2.1131   24.7925 H   0  0  0  0  0  0  0  0  0  0  0  0  # atno 11173 bound_to 11153
  -18.2823   -0.6287   27.6784 H   0  0  0  0  0  0  0  0  0  0  0  0  # atno 11211 bound_to 11201
  -18.2564    0.0483   31.5817 H   0  0  0  0  0  0  0  0  0  0  0  0  # atno 11249 bound_to 11237
  -17.7359   -0.7043   33.5293 H   0  0  0  0  0  0  0  0  0  0  0  0  # atno 11292 bound_to 11275
  -19.9660   -5.4867   33.3375 H   0  0  0  0  0  0  0  0  0  0  0  0  # atno 11385 bound_to 11366
  -22.8986   -3.6859   31.6654 H   0  0  0  0  0  0  0  0  0  0  0  0  # atno 11493 bound_to 11474
  -18.6827   -9.9472   32.2108 H   0  0  0  0  0  0  0  0  0  0  0  0  # atno 11568 bound_to 11550
  -25.4343    2.0464   28.7287 H   0  0  0  0  0  0  0  0  0  0  0  0  # atno 11673 bound_to 11649
  -23.9095    2.6810   28.8754 H   0  0  0  0  0  0  0  0  0  0  0  0  # atno 11674 bound_to 11649
  -24.7786    2.9261   27.4854 H   0  0  0  0  0  0  0  0  0  0  0  0  # atno 11675 bound_to 11649
   -7.8316    8.9086   25.7273 H   0  0  0  0  0  0  0  0  0  0  0  0  # atno 11686 bound_to 11631
   -8.8352    9.0700   27.0359 H   0  0  0  0  0  0  0  0  0  0  0  0  # atno 11687 bound_to 11631
   -9.1734    7.9451   25.8674 H   0  0  0  0  0  0  0  0  0  0  0  0  # atno 11688 bound_to 11631
  -13.1582   15.2931   23.3493 H   0  0  0  0  0  0  0  0  0  0  0  0  # atno 11826 bound_to 11799
  -17.5086   14.8647   25.1721 H   0  0  0  0  0  0  0  0  0  0  0  0  # atno 11911 bound_to 11856
  -18.3086   16.2351   24.6924 H   0  0  0  0  0  0  0  0  0  0  0  0  # atno 11912 bound_to 11856
  -16.9228   15.7682   23.9114 H   0  0  0  0  0  0  0  0  0  0  0  0  # atno 11913 bound_to 11856
  -29.0352    0.5989   19.1463 H   0  0  0  0  0  0  0  0  0  0  0  0  # atno 12008 bound_to 11984
  -27.6775    2.4363   17.3678 H   0  0  0  0  0  0  0  0  0  0  0  0  # atno 12076 bound_to 12056
  -25.5521    7.1572   13.6090 H   0  0  0  0  0  0  0  0  0  0  0  0  # atno 12159 bound_to 12148
    1.3697   -8.9209   18.0052 H   0  0  0  0  0  0  0  0  0  0  0  0  # atno 15411 bound_to 15403
   -2.0672   -9.6104   22.2792 H   0  0  0  0  0  0  0  0  0  0  0  0  # atno 15475 bound_to 15466
  -13.4036   16.8914   23.1679 LP  0  0  0  0  0  0  0  0  0  0  0  0  # atno 16466 bound_to 11799
  -12.3309   16.1137   22.2135 LP  0  0  0  0  0  0  0  0  0  0  0  0  # atno 16467 bound_to 11799
  -22.5624    4.5682   17.9818 LP  0  0  0  0  0  0  0  0  0  0  0  0  # atno 16468 bound_to 10959
  -21.9045    4.6502   16.4895 LP  0  0  0  0  0  0  0  0  0  0  0  0  # atno 16469 bound_to 10959
  -17.9596    3.7268   13.9014 LP  0  0  0  0  0  0  0  0  0  0  0  0  # atno 16472 bound_to 10886
  -16.7458    3.2104   15.0238 LP  0  0  0  0  0  0  0  0  0  0  0  0  # atno 16473 bound_to 10886
  -16.3395    1.4057   16.7900 LP  0  0  0  0  0  0  0  0  0  0  0  0  # atno 16474 bound_to 10948
  -21.2194    0.1144   20.6064 LP  0  0  0  0  0  0  0  0  0  0  0  0  # atno 16475 bound_to 11004
  -20.0770   -0.5414   21.7310 LP  0  0  0  0  0  0  0  0  0  0  0  0  # atno 16476 bound_to 11004
  -14.7174    1.6104   18.0478 LP  0  0  0  0  0  0  0  0  0  0  0  0  # atno 16477 bound_to 10914
  -13.7936    0.7050   16.8959 LP  0  0  0  0  0  0  0  0  0  0  0  0  # atno 16478 bound_to 10914
  -19.7152   -1.5270   17.5911 LP  0  0  0  0  0  0  0  0  0  0  0  0  # atno 16479 bound_to 10951
  -19.3682    0.1220   17.1904 LP  0  0  0  0  0  0  0  0  0  0  0  0  # atno 16480 bound_to 10951
  -24.2661    1.7786   17.2559 LP  0  0  0  0  0  0  0  0  0  0  0  0  # atno 16482 bound_to 10719
  -23.0421    1.5419   18.3106 LP  0  0  0  0  0  0  0  0  0  0  0  0  # atno 16483 bound_to 10719
  -25.7623    1.7070   17.1003 LP  0  0  0  0  0  0  0  0  0  0  0  0  # atno 16484 bound_to 11987
  -26.2122    1.2975   18.7220 LP  0  0  0  0  0  0  0  0  0  0  0  0  # atno 16485 bound_to 11987
  -27.4346    5.5305   16.0279 LP  0  0  0  0  0  0  0  0  0  0  0  0  # atno 16486 bound_to 12059
  -26.8036    6.0806   14.5116 LP  0  0  0  0  0  0  0  0  0  0  0  0  # atno 16487 bound_to 12059
  -24.6411   -0.1370   21.6990 LP  0  0  0  0  0  0  0  0  0  0  0  0  # atno 16490 bound_to 11046
  -24.7440   -0.9789   23.2092 LP  0  0  0  0  0  0  0  0  0  0  0  0  # atno 16491 bound_to 11046
  -28.3340    3.9407   16.7703 LP  0  0  0  0  0  0  0  0  0  0  0  0  # atno 16492 bound_to 12056
  -17.1548    1.1939   13.4827 LP  0  0  0  0  0  0  0  0  0  0  0  0  # atno 16493 bound_to 10911
  -12.8592    0.2361   13.4414 LP  0  0  0  0  0  0  0  0  0  0  0  0  # atno 16500 bound_to 6108
  -13.5187    1.5299   14.3854 LP  0  0  0  0  0  0  0  0  0  0  0  0  # atno 16501 bound_to 6108
  -12.4270    1.7833   12.2028 LP  0  0  0  0  0  0  0  0  0  0  0  0  # atno 16502 bound_to 6140
   -8.2412    2.3022   16.2575 LP  0  0  0  0  0  0  0  0  0  0  0  0  # atno 16503 bound_to 5921
   -8.8799    2.3186   14.6476 LP  0  0  0  0  0  0  0  0  0  0  0  0  # atno 16504 bound_to 5921
  -10.1014    2.4489   11.4915 LP  0  0  0  0  0  0  0  0  0  0  0  0  # atno 16505 bound_to 6105
   -9.1961    4.7177   10.9080 LP  0  0  0  0  0  0  0  0  0  0  0  0  # atno 16506 bound_to 6059
  -10.8795    4.3175   10.9850 LP  0  0  0  0  0  0  0  0  0  0  0  0  # atno 16507 bound_to 6059
   -9.6577    0.7120   13.9454 LP  0  0  0  0  0  0  0  0  0  0  0  0  # atno 16510 bound_to 5858
  -10.8580    0.0606   12.8800 LP  0  0  0  0  0  0  0  0  0  0  0  0  # atno 16511 bound_to 5858
   -8.6257   -1.5215   14.0740 LP  0  0  0  0  0  0  0  0  0  0  0  0  # atno 16516 bound_to 5918
   -6.7981    0.0748   15.3427 LP  0  0  0  0  0  0  0  0  0  0  0  0  # atno 16517 bound_to 5990
   -5.8717    3.6379   12.2167 LP  0  0  0  0  0  0  0  0  0  0  0  0  # atno 16518 bound_to 5993
   -7.5527    3.9383   12.5062 LP  0  0  0  0  0  0  0  0  0  0  0  0  # atno 16519 bound_to 5993
   -7.2253    1.9078   12.4287 LP  0  0  0  0  0  0  0  0  0  0  0  0  # atno 16520 bound_to 6056
  -20.7353    1.2926   26.6806 LP  0  0  0  0  0  0  0  0  0  0  0  0  # atno 16523 bound_to 11156
  -21.5506    0.4396   27.9486 LP  0  0  0  0  0  0  0  0  0  0  0  0  # atno 16524 bound_to 11156
  -19.9249   -1.0853   28.0873 LP  0  0  0  0  0  0  0  0  0  0  0  0  # atno 16525 bound_to 11201
  -16.0551   -0.2498   29.1668 LP  0  0  0  0  0  0  0  0  0  0  0  0  # atno 16528 bound_to 11204
  -16.8288   -1.6645   29.7994 LP  0  0  0  0  0  0  0  0  0  0  0  0  # atno 16529 bound_to 11204
  -17.5806    1.3494   30.6304 LP  0  0  0  0  0  0  0  0  0  0  0  0  # atno 16530 bound_to 11237
  -21.7717   -0.6909   25.6508 LP  0  0  0  0  0  0  0  0  0  0  0  0  # atno 16533 bound_to 11153
  -20.0208   -3.6443   25.3420 LP  0  0  0  0  0  0  0  0  0  0  0  0  # atno 16540 bound_to 11096
  -20.9061   -4.0849   23.9200 LP  0  0  0  0  0  0  0  0  0  0  0  0  # atno 16541 bound_to 11096
  -15.9747   -2.0899   14.9928 LP  0  0  0  0  0  0  0  0  0  0  0  0  # atno 16544 bound_to 10768
  -17.0283   -1.2809   13.8812 LP  0  0  0  0  0  0  0  0  0  0  0  0  # atno 16545 bound_to 10768
  -14.2449   -1.0935   32.9993 LP  0  0  0  0  0  0  0  0  0  0  0  0  # atno 16552 bound_to 11240
  -15.0034   -2.3730   32.1119 LP  0  0  0  0  0  0  0  0  0  0  0  0  # atno 16553 bound_to 11240
  -16.7810   -1.3265   32.2044 LP  0  0  0  0  0  0  0  0  0  0  0  0  # atno 16554 bound_to 11275
  -19.1510   -2.7427   31.8345 LP  0  0  0  0  0  0  0  0  0  0  0  0  # atno 16558 bound_to 11278
  -19.9849   -3.9828   32.7101 LP  0  0  0  0  0  0  0  0  0  0  0  0  # atno 16559 bound_to 11278
  -18.7165   -9.2784   25.6281 LP  0  0  0  0  0  0  0  0  0  0  0  0  # atno 16561 bound_to 9430
  -20.8352   -5.6440   31.2379 LP  0  0  0  0  0  0  0  0  0  0  0  0  # atno 16562 bound_to 11325
  -21.5636   -6.9037   32.1773 LP  0  0  0  0  0  0  0  0  0  0  0  0  # atno 16563 bound_to 11325
  -21.2393   -3.2116   31.3621 LP  0  0  0  0  0  0  0  0  0  0  0  0  # atno 16564 bound_to 11474
  -19.5309   -6.2444   34.8417 LP  0  0  0  0  0  0  0  0  0  0  0  0  # atno 16565 bound_to 11366
  -21.0550   -8.5435   27.6376 LP  0  0  0  0  0  0  0  0  0  0  0  0  # atno 16566 bound_to 9387
  -21.2204   -8.9490   25.9618 LP  0  0  0  0  0  0  0  0  0  0  0  0  # atno 16567 bound_to 9387
  -19.0670  -10.6800   30.8096 LP  0  0  0  0  0  0  0  0  0  0  0  0  # atno 16568 bound_to 11550
  -19.4203  -11.3976   32.2333 LP  0  0  0  0  0  0  0  0  0  0  0  0  # atno 16569 bound_to 11550
  -18.7271  -10.6382   24.7522 LP  0  0  0  0  0  0  0  0  0  0  0  0  # atno 16570 bound_to 9345
  -19.1419  -12.1809   25.4217 LP  0  0  0  0  0  0  0  0  0  0  0  0  # atno 16571 bound_to 9345
  -14.9817  -13.7079   23.8692 LP  0  0  0  0  0  0  0  0  0  0  0  0  # atno 16572 bound_to 9348
  -14.4905  -13.5818   25.4215 LP  0  0  0  0  0  0  0  0  0  0  0  0  # atno 16573 bound_to 9348
  -18.8689   -9.2113   23.4379 LP  0  0  0  0  0  0  0  0  0  0  0  0  # atno 16574 bound_to 9481
   -8.3619   -3.7355   16.6814 LP  0  0  0  0  0  0  0  0  0  0  0  0  # atno 16579 bound_to 5720
   -8.5776   -3.6963   14.9633 LP  0  0  0  0  0  0  0  0  0  0  0  0  # atno 16580 bound_to 5720
   -1.8540  -10.9580   21.3926 LP  0  0  0  0  0  0  0  0  0  0  0  0  # atno 16587 bound_to 15466
   -1.2862   -9.5247   20.8544 LP  0  0  0  0  0  0  0  0  0  0  0  0  # atno 16588 bound_to 15466
  -11.4511  -10.7670   17.8203 LP  0  0  0  0  0  0  0  0  0  0  0  0  # atno 16591 bound_to 7831
   -2.6993  -13.0624   26.9152 LP  0  0  0  0  0  0  0  0  0  0  0  0  # atno 16592 bound_to 1821
   -3.9772  -13.8940   26.0934 LP  0  0  0  0  0  0  0  0  0  0  0  0  # atno 16593 bound_to 1821
   -7.3530  -12.7282   17.2226 LP  0  0  0  0  0  0  0  0  0  0  0  0  # atno 16594 bound_to 7834
   -7.7860  -13.3788   18.7683 LP  0  0  0  0  0  0  0  0  0  0  0  0  # atno 16595 bound_to 7834
   -9.7089   -7.6815   14.2854 LP  0  0  0  0  0  0  0  0  0  0  0  0  # atno 16596 bound_to 5717
   -6.5953   -6.1811   16.2891 LP  0  0  0  0  0  0  0  0  0  0  0  0  # atno 16597 bound_to 5767
   -0.2268  -12.1133   19.4846 LP  0  0  0  0  0  0  0  0  0  0  0  0  # atno 16600 bound_to 1745
   -0.9689  -13.6406   19.1429 LP  0  0  0  0  0  0  0  0  0  0  0  0  # atno 16601 bound_to 1745
   -0.9798  -13.2691   24.5647 LP  0  0  0  0  0  0  0  0  0  0  0  0  # atno 16602 bound_to 1818
   -3.9220   -5.5787   13.2933 LP  0  0  0  0  0  0  0  0  0  0  0  0  # atno 16603 bound_to 5772
   -4.8050   -6.6803   14.1140 LP  0  0  0  0  0  0  0  0  0  0  0  0  # atno 16604 bound_to 5772
    1.1566   -7.4382   17.1043 LP  0  0  0  0  0  0  0  0  0  0  0  0  # atno 16605 bound_to 15403
    0.7277  -13.6826   20.4426 LP  0  0  0  0  0  0  0  0  0  0  0  0  # atno 16606 bound_to 1791
   -4.2639   -9.3095   13.1634 LP  0  0  0  0  0  0  0  0  0  0  0  0  # atno 16607 bound_to 5617
   -6.2061   -7.4259   14.0825 LP  0  0  0  0  0  0  0  0  0  0  0  0  # atno 16608 bound_to 5620
   -5.8654   -7.7401   12.4136 LP  0  0  0  0  0  0  0  0  0  0  0  0  # atno 16609 bound_to 5620
   -9.5688   -9.4979   15.1183 LP  0  0  0  0  0  0  0  0  0  0  0  0  # atno 16610 bound_to 7788
   -9.7640  -11.2073   15.3180 LP  0  0  0  0  0  0  0  0  0  0  0  0  # atno 16611 bound_to 7788
  -11.0618  -12.5742   17.3264 LP  0  0  0  0  0  0  0  0  0  0  0  0  # atno 16612 bound_to 7874
    0.9798  -15.9916   22.8252 LP  0  0  0  0  0  0  0  0  0  0  0  0  # atno 16613 bound_to 1794
   -0.0221  -16.5722   24.1132 LP  0  0  0  0  0  0  0  0  0  0  0  0  # atno 16614 bound_to 1794
   -0.6392  -15.2592   28.6159 LP  0  0  0  0  0  0  0  0  0  0  0  0  # atno 16615 bound_to 1824
   -1.2059  -13.8433   28.0324 LP  0  0  0  0  0  0  0  0  0  0  0  0  # atno 16616 bound_to 1824
   -2.7056  -16.6936   26.3648 LP  0  0  0  0  0  0  0  0  0  0  0  0  # atno 16617 bound_to 1854
  -15.7499  -15.5175   27.7902 LP  0  0  0  0  0  0  0  0  0  0  0  0  # atno 16622 bound_to 9318
  -15.3801  -13.8527   27.4874 LP  0  0  0  0  0  0  0  0  0  0  0  0  # atno 16623 bound_to 9318
  -17.8471  -13.8367   26.2264 LP  0  0  0  0  0  0  0  0  0  0  0  0  # atno 16624 bound_to 9342
  -21.8663   -8.3715   22.7854 LP  0  0  0  0  0  0  0  0  0  0  0  0  # atno 16627 bound_to 9433
  -21.0817   -6.8288   22.8519 LP  0  0  0  0  0  0  0  0  0  0  0  0  # atno 16628 bound_to 9433
  -17.5416   -7.7852   17.2593 LP  0  0  0  0  0  0  0  0  0  0  0  0  # atno 16629 bound_to 9492
  -16.0913   -7.9429   17.9929 LP  0  0  0  0  0  0  0  0  0  0  0  0  # atno 16630 bound_to 9492
  -17.9149  -13.2089   19.5637 LP  0  0  0  0  0  0  0  0  0  0  0  0  # atno 16631 bound_to 7667
  -16.7143  -11.9874   19.8216 LP  0  0  0  0  0  0  0  0  0  0  0  0  # atno 16632 bound_to 7667
  -15.2186  -13.4743   18.9011 LP  0  0  0  0  0  0  0  0  0  0  0  0  # atno 16634 bound_to 7723
  -12.9401  -13.0521   17.1378 LP  0  0  0  0  0  0  0  0  0  0  0  0  # atno 16635 bound_to 7726
  -12.6935  -12.0645   15.7365 LP  0  0  0  0  0  0  0  0  0  0  0  0  # atno 16636 bound_to 7726
  -20.5377   -5.7129   17.3133 LP  0  0  0  0  0  0  0  0  0  0  0  0  # atno 16637 bound_to 10539
  -20.2606   -6.0181   15.6310 LP  0  0  0  0  0  0  0  0  0  0  0  0  # atno 16638 bound_to 10539
   -6.8242  -15.9948   32.4823 LP  0  0  0  0  0  0  0  0  0  0  0  0  # atno 16639 bound_to 1884
   -5.5645  -15.6352   31.5074 LP  0  0  0  0  0  0  0  0  0  0  0  0  # atno 16640 bound_to 1884
  -17.9606  -17.7375   27.0165 LP  0  0  0  0  0  0  0  0  0  0  0  0  # atno 16641 bound_to 9315
   -3.8630  -17.2589   29.4939 LP  0  0  0  0  0  0  0  0  0  0  0  0  # atno 16642 bound_to 1879
   -1.6431  -17.0611   28.9757 LP  0  0  0  0  0  0  0  0  0  0  0  0  # atno 16643 bound_to 1857
   -1.9832  -16.6434   30.6219 LP  0  0  0  0  0  0  0  0  0  0  0  0  # atno 16644 bound_to 1857
  -18.5870  -17.0570   23.1362 LP  0  0  0  0  0  0  0  0  0  0  0  0  # atno 16645 bound_to 7565
  -17.1576  -18.0160   23.3289 LP  0  0  0  0  0  0  0  0  0  0  0  0  # atno 16646 bound_to 7565
  -19.8989  -16.7714   26.2311 LP  0  0  0  0  0  0  0  0  0  0  0  0  # atno 16647 bound_to 9289
  -20.4442  -18.1593   27.1122 LP  0  0  0  0  0  0  0  0  0  0  0  0  # atno 16648 bound_to 9289
  -18.5143  -18.2159   31.7895 LP  0  0  0  0  0  0  0  0  0  0  0  0  # atno 16649 bound_to 9236
  -18.3316  -19.8994   31.4255 LP  0  0  0  0  0  0  0  0  0  0  0  0  # atno 16650 bound_to 9236
  -19.8021  -19.6833   29.7645 LP  0  0  0  0  0  0  0  0  0  0  0  0  # atno 16653 bound_to 9286
  -22.0920  -21.0028   31.8350 LP  0  0  0  0  0  0  0  0  0  0  0  0  # atno 16654 bound_to 9233
  -11.8921  -22.9779   34.6028 LP  0  0  0  0  0  0  0  0  0  0  0  0  # atno 16655 bound_to 3365
  -10.9823  -23.5849   33.2597 LP  0  0  0  0  0  0  0  0  0  0  0  0  # atno 16656 bound_to 3365
   -7.1319  -23.8983   36.1466 LP  0  0  0  0  0  0  0  0  0  0  0  0  # atno 16657 bound_to 3362
   -5.2648  -19.5080   30.9207 LP  0  0  0  0  0  0  0  0  0  0  0  0  # atno 16658 bound_to 1922

> <Gold.Score>
     Fitness  S(hb_ext) S(vdw_ext)  S(hb_int)    S(int)      intcor
     21.39       0.00      16.37       0.00      -1.12      -0.77

> <Gold.Goldscore.Fitness>
21.3924

> <Gold.Goldscore.Internal.Vdw>
-1.3664

> <Gold.Goldscore.Internal.Torsion>
-0.5254

> <Gold.Goldscore.External.Vdw>
16.3744

> <Gold.Goldscore.Internal.HBond>
0.0000

> <Gold.Goldscore.External.HBond>
0.0000

> <Gold.Goldscore.Internal.Correction>
-0.7693

> <Gold.Goldscore.Internal.Vdw.Weighted>
-1.3664

> <Gold.Goldscore.Internal.Torsion.Weighted>
-0.5254

> <Gold.Goldscore.External.Vdw.Weighted>
22.5149

> <Gold.Goldscore.Internal.HBond.Weighted>
0.0000

> <Gold.Goldscore.External.HBond.Weighted>
0.0000

> <Gold.Goldscore.Internal.Correction.Weighted>
-0.7693

> <Gold.Rescore>
     Score     S(PLP)   S(hbond)     S(cho)   S(metal)  DE(clash)   DE(tors)     intcor
     23.45     -25.18       0.00       0.00       0.00       0.00       0.86       ----

> <Gold.PLP.Fitness>
23.4548

> <Gold.PLP.PLP>
-25.1831

> <Gold.PLP.part.hbond>
-1.6741

> <Gold.PLP.part.metal>
0.0000

> <Gold.PLP.part.buried>
-0.2926

> <Gold.PLP.part.nonpolar>
-24.3337

> <Gold.PLP.part.repulsive>
0.5839

> <Gold.PLP.ligand.clash>
0.0000

> <Gold.PLP.ligand.torsion>
0.8642

> <Gold.PLP.Chemscore.Hbond>
0.0000

> <Gold.PLP.Chemscore.CHOScore>
0.0000

> <Gold.PLP.Chemscore.Metal>
0.0000

> <Gold.PLP.Chemscore.Internal.Correction>
   9.000000E+99

