#       Name:                GA Fitting Points
#       Creating user name   hitesit
#       Creation time:       Sun Apr 16 22:51:39 2023


#       Fitting Points Used by GA Software.
#

@<TRIPOS>MOLECULE
GA Fitting Points
 24609    0    0
SMALL
NO_CHARGES


@<TRIPOS>ATOM
      1 ****       -31.0000  -6.0000  21.2500 Du        
      2 ****       -31.0000  -6.0000  21.5000 Du        
      3 ****       -31.0000  -6.0000  21.7500 Du        
      4 ****       -31.0000  -6.0000  22.0000 Du        
      5 ****       -31.0000  -6.0000  22.2500 Du        
      6 ****       -31.0000  -5.7500  21.2500 Du        
      7 ****       -31.0000  -5.7500  21.5000 Du        
      8 ****       -31.0000  -5.7500  21.7500 Du        
      9 ****       -31.0000  -5.7500  22.0000 Du        
     10 ****       -31.0000  -5.7500  22.2500 Du        
     11 ****       -31.0000  -5.7500  22.5000 Du        
     12 ****       -31.0000  -5.5000  21.0000 Du        
     13 ****       -31.0000  -5.5000  21.2500 Du        
     14 ****       -31.0000  -5.5000  21.5000 Du        
     15 ****       -31.0000  -5.5000  21.7500 Du        
     16 ****       -31.0000  -5.5000  22.0000 Du        
     17 ****       -31.0000  -5.5000  22.2500 Du        
     18 ****       -31.0000  -5.5000  22.5000 Du        
     19 ****       -31.0000  -5.2500  21.0000 Du        
     20 ****       -31.0000  -5.2500  21.2500 Du        
     21 ****       -31.0000  -5.2500  21.5000 Du        
     22 ****       -31.0000  -5.2500  21.7500 Du        
     23 ****       -31.0000  -5.2500  22.0000 Du        
     24 ****       -31.0000  -5.2500  22.2500 Du        
     25 ****       -31.0000  -5.2500  22.5000 Du        
     26 ****       -31.0000  -5.0000  21.2500 Du        
     27 ****       -31.0000  -5.0000  21.5000 Du        
     28 ****       -31.0000  -5.0000  21.7500 Du        
     29 ****       -31.0000  -5.0000  22.0000 Du        
     30 ****       -31.0000  -5.0000  22.2500 Du        
     31 ****       -31.0000  -4.7500  22.0000 Du        
     32 ****       -31.0000   4.7500  14.7500 Du        
     33 ****       -31.0000   4.7500  15.0000 Du        
     34 ****       -31.0000   4.7500  15.2500 Du        
     35 ****       -31.0000   5.0000  14.7500 Du        
     36 ****       -31.0000   5.0000  15.0000 Du        
     37 ****       -31.0000   5.0000  15.2500 Du        
     38 ****       -31.0000   5.2500  14.5000 Du        
     39 ****       -31.0000   5.2500  14.7500 Du        
     40 ****       -31.0000   5.2500  15.0000 Du        
     41 ****       -31.0000   5.5000  14.5000 Du        
     42 ****       -31.0000   5.5000  14.7500 Du        
     43 ****       -31.0000   5.7500  14.5000 Du        
     44 ****       -30.7500  -6.0000  21.5000 Du        
     45 ****       -30.7500  -6.0000  21.7500 Du        
     46 ****       -30.7500  -6.0000  22.0000 Du        
     47 ****       -30.7500  -5.7500  21.2500 Du        
     48 ****       -30.7500  -5.7500  21.5000 Du        
     49 ****       -30.7500  -5.7500  21.7500 Du        
     50 ****       -30.7500  -5.7500  22.0000 Du        
     51 ****       -30.7500  -5.7500  22.2500 Du        
     52 ****       -30.7500  -5.7500  22.5000 Du        
     53 ****       -30.7500  -5.7500  22.7500 Du        
     54 ****       -30.7500  -5.5000  21.0000 Du        
     55 ****       -30.7500  -5.5000  21.2500 Du        
     56 ****       -30.7500  -5.5000  21.5000 Du        
     57 ****       -30.7500  -5.5000  21.7500 Du        
     58 ****       -30.7500  -5.5000  22.0000 Du        
     59 ****       -30.7500  -5.5000  22.2500 Du        
     60 ****       -30.7500  -5.5000  22.5000 Du        
     61 ****       -30.7500  -5.5000  22.7500 Du        
     62 ****       -30.7500  -5.2500  21.0000 Du        
     63 ****       -30.7500  -5.2500  21.2500 Du        
     64 ****       -30.7500  -5.2500  21.5000 Du        
     65 ****       -30.7500  -5.2500  21.7500 Du        
     66 ****       -30.7500  -5.2500  22.0000 Du        
     67 ****       -30.7500  -5.2500  22.2500 Du        
     68 ****       -30.7500  -5.2500  22.5000 Du        
     69 ****       -30.7500  -5.2500  22.7500 Du        
     70 ****       -30.7500  -5.0000  21.5000 Du        
     71 ****       -30.7500  -5.0000  21.7500 Du        
     72 ****       -30.7500  -5.0000  22.0000 Du        
     73 ****       -30.7500  -5.0000  22.2500 Du        
     74 ****       -30.7500  -5.0000  22.5000 Du        
     75 ****       -30.7500  -5.0000  22.7500 Du        
     76 ****       -30.7500   1.0000  28.2500 Du        
     77 ****       -30.7500   4.7500  15.0000 Du        
     78 ****       -30.7500   5.0000  14.7500 Du        
     79 ****       -30.7500   5.0000  15.0000 Du        
     80 ****       -30.7500   5.2500  14.5000 Du        
     81 ****       -30.7500   5.2500  14.7500 Du        
     82 ****       -30.7500   5.2500  15.0000 Du        
     83 ****       -30.5000  -5.7500  21.2500 Du        
     84 ****       -30.5000  -5.7500  21.5000 Du        
     85 ****       -30.5000  -5.7500  21.7500 Du        
     86 ****       -30.5000  -5.7500  22.0000 Du        
     87 ****       -30.5000  -5.7500  22.2500 Du        
     88 ****       -30.5000  -5.7500  22.5000 Du        
     89 ****       -30.5000  -5.5000  21.0000 Du        
     90 ****       -30.5000  -5.5000  21.2500 Du        
     91 ****       -30.5000  -5.5000  21.5000 Du        
     92 ****       -30.5000  -5.5000  21.7500 Du        
     93 ****       -30.5000  -5.5000  22.0000 Du        
     94 ****       -30.5000  -5.5000  22.2500 Du        
     95 ****       -30.5000  -5.5000  22.5000 Du        
     96 ****       -30.5000  -5.5000  22.7500 Du        
     97 ****       -30.5000  -5.5000  23.0000 Du        
     98 ****       -30.5000  -5.5000  23.2500 Du        
     99 ****       -30.5000  -5.2500  21.2500 Du        
    100 ****       -30.5000  -5.2500  21.5000 Du        
    101 ****       -30.5000  -5.2500  21.7500 Du        
    102 ****       -30.5000  -5.2500  22.0000 Du        
    103 ****       -30.5000  -5.2500  22.2500 Du        
    104 ****       -30.5000  -5.2500  22.5000 Du        
    105 ****       -30.5000  -5.2500  22.7500 Du        
    106 ****       -30.5000  -5.2500  23.0000 Du        
    107 ****       -30.5000  -5.2500  23.2500 Du        
    108 ****       -30.5000  -5.0000  21.7500 Du        
    109 ****       -30.5000  -5.0000  22.0000 Du        
    110 ****       -30.5000  -5.0000  22.2500 Du        
    111 ****       -30.5000  -5.0000  22.5000 Du        
    112 ****       -30.5000  -5.0000  22.7500 Du        
    113 ****       -30.5000  -5.0000  23.0000 Du        
    114 ****       -30.5000   0.7500  28.0000 Du        
    115 ****       -30.5000   0.7500  28.2500 Du        
    116 ****       -30.5000   1.0000  28.0000 Du        
    117 ****       -30.5000   1.0000  28.2500 Du        
    118 ****       -30.5000   5.2500  14.7500 Du        
    119 ****       -30.2500  -5.5000  21.5000 Du        
    120 ****       -30.2500  -5.5000  21.7500 Du        
    121 ****       -30.2500  -5.5000  22.7500 Du        
    122 ****       -30.2500  -5.5000  23.0000 Du        
    123 ****       -30.2500  -5.5000  23.2500 Du        
    124 ****       -30.2500  -5.2500  21.7500 Du        
    125 ****       -30.2500  -5.2500  22.0000 Du        
    126 ****       -30.2500  -5.2500  22.2500 Du        
    127 ****       -30.2500  -5.2500  22.5000 Du        
    128 ****       -30.2500  -5.2500  22.7500 Du        
    129 ****       -30.2500  -5.2500  23.0000 Du        
    130 ****       -30.2500  -5.2500  23.2500 Du        
    131 ****       -30.2500  -5.0000  22.5000 Du        
    132 ****       -30.2500  -5.0000  22.7500 Du        
    133 ****       -30.2500  -5.0000  23.0000 Du        
    134 ****       -30.2500  -5.0000  23.2500 Du        
    135 ****       -30.2500   0.2500  29.5000 Du        
    136 ****       -30.2500   0.2500  29.7500 Du        
    137 ****       -30.2500   0.2500  30.0000 Du        
    138 ****       -30.2500   0.2500  30.2500 Du        
    139 ****       -30.2500   0.5000  28.0000 Du        
    140 ****       -30.2500   0.5000  28.2500 Du        
    141 ****       -30.2500   0.5000  29.7500 Du        
    142 ****       -30.2500   0.5000  30.0000 Du        
    143 ****       -30.2500   0.7500  27.7500 Du        
    144 ****       -30.2500   0.7500  28.0000 Du        
    145 ****       -30.2500   0.7500  28.2500 Du        
    146 ****       -30.2500   0.7500  29.7500 Du        
    147 ****       -30.2500   1.0000  27.5000 Du        
    148 ****       -30.2500   1.0000  27.7500 Du        
    149 ****       -30.2500   1.0000  28.0000 Du        
    150 ****       -30.2500   1.0000  28.2500 Du        
    151 ****       -30.2500   1.2500  27.5000 Du        
    152 ****       -30.2500   1.2500  27.7500 Du        
    153 ****       -30.2500   1.2500  28.0000 Du        
    154 ****       -30.2500   1.2500  28.2500 Du        
    155 ****       -30.0000   0.0000  29.7500 Du        
    156 ****       -30.0000   0.0000  30.0000 Du        
    157 ****       -30.0000   0.2500  28.0000 Du        
    158 ****       -30.0000   0.2500  28.2500 Du        
    159 ****       -30.0000   0.2500  28.5000 Du        
    160 ****       -30.0000   0.2500  28.7500 Du        
    161 ****       -30.0000   0.2500  29.0000 Du        
    162 ****       -30.0000   0.2500  29.2500 Du        
    163 ****       -30.0000   0.2500  29.5000 Du        
    164 ****       -30.0000   0.2500  29.7500 Du        
    165 ****       -30.0000   0.2500  30.0000 Du        
    166 ****       -30.0000   0.2500  30.2500 Du        
    167 ****       -30.0000   0.5000  27.5000 Du        
    168 ****       -30.0000   0.5000  27.7500 Du        
    169 ****       -30.0000   0.5000  28.0000 Du        
    170 ****       -30.0000   0.5000  28.2500 Du        
    171 ****       -30.0000   0.5000  28.5000 Du        
    172 ****       -30.0000   0.5000  28.7500 Du        
    173 ****       -30.0000   0.5000  29.0000 Du        
    174 ****       -30.0000   0.5000  29.2500 Du        
    175 ****       -30.0000   0.5000  29.5000 Du        
    176 ****       -30.0000   0.5000  29.7500 Du        
    177 ****       -30.0000   0.5000  30.0000 Du        
    178 ****       -30.0000   0.5000  30.2500 Du        
    179 ****       -30.0000   0.7500  27.2500 Du        
    180 ****       -30.0000   0.7500  27.5000 Du        
    181 ****       -30.0000   0.7500  27.7500 Du        
    182 ****       -30.0000   0.7500  28.0000 Du        
    183 ****       -30.0000   0.7500  28.2500 Du        
    184 ****       -30.0000   0.7500  28.5000 Du        
    185 ****       -30.0000   0.7500  28.7500 Du        
    186 ****       -30.0000   0.7500  29.0000 Du        
    187 ****       -30.0000   0.7500  29.2500 Du        
    188 ****       -30.0000   0.7500  29.5000 Du        
    189 ****       -30.0000   0.7500  29.7500 Du        
    190 ****       -30.0000   0.7500  30.0000 Du        
    191 ****       -30.0000   1.0000  27.2500 Du        
    192 ****       -30.0000   1.0000  27.5000 Du        
    193 ****       -30.0000   1.0000  27.7500 Du        
    194 ****       -30.0000   1.0000  28.0000 Du        
    195 ****       -30.0000   1.0000  28.2500 Du        
    196 ****       -30.0000   1.0000  28.5000 Du        
    197 ****       -30.0000   1.0000  28.7500 Du        
    198 ****       -30.0000   1.0000  29.0000 Du        
    199 ****       -30.0000   1.0000  29.2500 Du        
    200 ****       -30.0000   1.2500  27.2500 Du        
    201 ****       -30.0000   1.2500  27.5000 Du        
    202 ****       -30.0000   1.2500  27.7500 Du        
    203 ****       -30.0000   1.2500  28.0000 Du        
    204 ****       -30.0000   1.2500  28.2500 Du        
    205 ****       -29.7500   0.0000  29.5000 Du        
    206 ****       -29.7500   0.0000  29.7500 Du        
    207 ****       -29.7500   0.0000  30.0000 Du        
    208 ****       -29.7500   0.2500  27.5000 Du        
    209 ****       -29.7500   0.2500  27.7500 Du        
    210 ****       -29.7500   0.2500  28.0000 Du        
    211 ****       -29.7500   0.2500  28.2500 Du        
    212 ****       -29.7500   0.2500  28.5000 Du        
    213 ****       -29.7500   0.2500  28.7500 Du        
    214 ****       -29.7500   0.2500  29.0000 Du        
    215 ****       -29.7500   0.2500  29.2500 Du        
    216 ****       -29.7500   0.2500  29.5000 Du        
    217 ****       -29.7500   0.2500  29.7500 Du        
    218 ****       -29.7500   0.2500  30.0000 Du        
    219 ****       -29.7500   0.2500  30.2500 Du        
    220 ****       -29.7500   0.5000  27.2500 Du        
    221 ****       -29.7500   0.5000  27.5000 Du        
    222 ****       -29.7500   0.5000  27.7500 Du        
    223 ****       -29.7500   0.5000  28.0000 Du        
    224 ****       -29.7500   0.5000  28.2500 Du        
    225 ****       -29.7500   0.5000  28.5000 Du        
    226 ****       -29.7500   0.5000  28.7500 Du        
    227 ****       -29.7500   0.5000  29.0000 Du        
    228 ****       -29.7500   0.5000  29.2500 Du        
    229 ****       -29.7500   0.5000  29.5000 Du        
    230 ****       -29.7500   0.5000  29.7500 Du        
    231 ****       -29.7500   0.5000  30.0000 Du        
    232 ****       -29.7500   0.5000  30.2500 Du        
    233 ****       -29.7500   0.7500  27.0000 Du        
    234 ****       -29.7500   0.7500  27.2500 Du        
    235 ****       -29.7500   0.7500  27.5000 Du        
    236 ****       -29.7500   0.7500  27.7500 Du        
    237 ****       -29.7500   0.7500  28.0000 Du        
    238 ****       -29.7500   0.7500  28.2500 Du        
    239 ****       -29.7500   0.7500  28.5000 Du        
    240 ****       -29.7500   0.7500  28.7500 Du        
    241 ****       -29.7500   0.7500  29.0000 Du        
    242 ****       -29.7500   0.7500  29.2500 Du        
    243 ****       -29.7500   0.7500  29.5000 Du        
    244 ****       -29.7500   0.7500  29.7500 Du        
    245 ****       -29.7500   0.7500  30.0000 Du        
    246 ****       -29.7500   0.7500  30.2500 Du        
    247 ****       -29.7500   1.0000  27.0000 Du        
    248 ****       -29.7500   1.0000  27.2500 Du        
    249 ****       -29.7500   1.0000  27.5000 Du        
    250 ****       -29.7500   1.0000  27.7500 Du        
    251 ****       -29.7500   1.0000  28.0000 Du        
    252 ****       -29.7500   1.0000  28.2500 Du        
    253 ****       -29.7500   1.0000  28.5000 Du        
    254 ****       -29.7500   1.0000  28.7500 Du        
    255 ****       -29.7500   1.0000  29.0000 Du        
    256 ****       -29.7500   1.0000  29.2500 Du        
    257 ****       -29.7500   1.0000  29.5000 Du        
    258 ****       -29.7500   1.0000  29.7500 Du        
    259 ****       -29.7500   1.0000  30.0000 Du        
    260 ****       -29.7500   1.2500  27.0000 Du        
    261 ****       -29.7500   1.2500  27.2500 Du        
    262 ****       -29.7500   1.2500  27.5000 Du        
    263 ****       -29.7500   1.2500  27.7500 Du        
    264 ****       -29.7500   1.2500  28.0000 Du        
    265 ****       -29.7500   1.2500  28.2500 Du        
    266 ****       -29.5000   0.0000  29.7500 Du        
    267 ****       -29.5000   0.0000  30.0000 Du        
    268 ****       -29.5000   0.2500  27.0000 Du        
    269 ****       -29.5000   0.2500  27.2500 Du        
    270 ****       -29.5000   0.2500  27.5000 Du        
    271 ****       -29.5000   0.2500  27.7500 Du        
    272 ****       -29.5000   0.2500  28.0000 Du        
    273 ****       -29.5000   0.2500  28.2500 Du        
    274 ****       -29.5000   0.2500  28.5000 Du        
    275 ****       -29.5000   0.2500  28.7500 Du        
    276 ****       -29.5000   0.2500  29.0000 Du        
    277 ****       -29.5000   0.2500  29.2500 Du        
    278 ****       -29.5000   0.2500  29.5000 Du        
    279 ****       -29.5000   0.2500  29.7500 Du        
    280 ****       -29.5000   0.2500  30.0000 Du        
    281 ****       -29.5000   0.2500  30.2500 Du        
    282 ****       -29.5000   0.5000  27.0000 Du        
    283 ****       -29.5000   0.5000  27.2500 Du        
    284 ****       -29.5000   0.5000  27.5000 Du        
    285 ****       -29.5000   0.5000  27.7500 Du        
    286 ****       -29.5000   0.5000  28.0000 Du        
    287 ****       -29.5000   0.5000  28.2500 Du        
    288 ****       -29.5000   0.5000  28.5000 Du        
    289 ****       -29.5000   0.5000  28.7500 Du        
    290 ****       -29.5000   0.5000  29.0000 Du        
    291 ****       -29.5000   0.5000  29.2500 Du        
    292 ****       -29.5000   0.5000  29.5000 Du        
    293 ****       -29.5000   0.5000  29.7500 Du        
    294 ****       -29.5000   0.5000  30.0000 Du        
    295 ****       -29.5000   0.5000  30.2500 Du        
    296 ****       -29.5000   0.7500  27.0000 Du        
    297 ****       -29.5000   0.7500  27.2500 Du        
    298 ****       -29.5000   0.7500  27.5000 Du        
    299 ****       -29.5000   0.7500  27.7500 Du        
    300 ****       -29.5000   0.7500  28.0000 Du        
    301 ****       -29.5000   0.7500  28.2500 Du        
    302 ****       -29.5000   0.7500  28.5000 Du        
    303 ****       -29.5000   0.7500  28.7500 Du        
    304 ****       -29.5000   0.7500  29.0000 Du        
    305 ****       -29.5000   0.7500  29.2500 Du        
    306 ****       -29.5000   0.7500  29.5000 Du        
    307 ****       -29.5000   0.7500  29.7500 Du        
    308 ****       -29.5000   0.7500  30.0000 Du        
    309 ****       -29.5000   0.7500  30.2500 Du        
    310 ****       -29.5000   1.0000  27.0000 Du        
    311 ****       -29.5000   1.0000  27.2500 Du        
    312 ****       -29.5000   1.0000  27.5000 Du        
    313 ****       -29.5000   1.0000  27.7500 Du        
    314 ****       -29.5000   1.0000  28.0000 Du        
    315 ****       -29.5000   1.0000  28.2500 Du        
    316 ****       -29.5000   1.0000  28.5000 Du        
    317 ****       -29.5000   1.0000  28.7500 Du        
    318 ****       -29.5000   1.0000  29.0000 Du        
    319 ****       -29.5000   1.0000  29.2500 Du        
    320 ****       -29.5000   1.0000  29.5000 Du        
    321 ****       -29.5000   1.0000  29.7500 Du        
    322 ****       -29.5000   1.0000  30.0000 Du        
    323 ****       -29.5000   1.2500  27.0000 Du        
    324 ****       -29.5000   1.2500  27.2500 Du        
    325 ****       -29.5000   1.2500  27.5000 Du        
    326 ****       -29.5000   1.2500  27.7500 Du        
    327 ****       -29.5000   1.2500  28.0000 Du        
    328 ****       -29.5000   1.2500  28.2500 Du        
    329 ****       -29.5000   1.2500  28.5000 Du        
    330 ****       -29.5000   1.2500  28.7500 Du        
    331 ****       -29.5000   1.2500  29.2500 Du        
    332 ****       -29.2500   0.2500  26.7500 Du        
    333 ****       -29.2500   0.2500  27.0000 Du        
    334 ****       -29.2500   0.2500  27.2500 Du        
    335 ****       -29.2500   0.2500  27.5000 Du        
    336 ****       -29.2500   0.2500  29.0000 Du        
    337 ****       -29.2500   0.2500  29.2500 Du        
    338 ****       -29.2500   0.2500  29.5000 Du        
    339 ****       -29.2500   0.2500  29.7500 Du        
    340 ****       -29.2500   0.2500  30.0000 Du        
    341 ****       -29.2500   0.2500  30.2500 Du        
    342 ****       -29.2500   0.5000  26.7500 Du        
    343 ****       -29.2500   0.5000  27.0000 Du        
    344 ****       -29.2500   0.5000  27.2500 Du        
    345 ****       -29.2500   0.5000  27.5000 Du        
    346 ****       -29.2500   0.5000  27.7500 Du        
    347 ****       -29.2500   0.5000  28.7500 Du        
    348 ****       -29.2500   0.5000  29.0000 Du        
    349 ****       -29.2500   0.5000  29.2500 Du        
    350 ****       -29.2500   0.5000  29.5000 Du        
    351 ****       -29.2500   0.5000  29.7500 Du        
    352 ****       -29.2500   0.5000  30.0000 Du        
    353 ****       -29.2500   0.5000  30.2500 Du        
    354 ****       -29.2500   0.7500  26.7500 Du        
    355 ****       -29.2500   0.7500  27.0000 Du        
    356 ****       -29.2500   0.7500  27.2500 Du        
    357 ****       -29.2500   0.7500  27.5000 Du        
    358 ****       -29.2500   0.7500  27.7500 Du        
    359 ****       -29.2500   0.7500  28.0000 Du        
    360 ****       -29.2500   0.7500  28.2500 Du        
    361 ****       -29.2500   0.7500  28.5000 Du        
    362 ****       -29.2500   0.7500  28.7500 Du        
    363 ****       -29.2500   0.7500  29.0000 Du        
    364 ****       -29.2500   0.7500  29.2500 Du        
    365 ****       -29.2500   0.7500  29.5000 Du        
    366 ****       -29.2500   0.7500  29.7500 Du        
    367 ****       -29.2500   0.7500  30.0000 Du        
    368 ****       -29.2500   0.7500  30.2500 Du        
    369 ****       -29.2500   1.0000  26.7500 Du        
    370 ****       -29.2500   1.0000  27.0000 Du        
    371 ****       -29.2500   1.0000  27.2500 Du        
    372 ****       -29.2500   1.0000  27.5000 Du        
    373 ****       -29.2500   1.0000  27.7500 Du        
    374 ****       -29.2500   1.0000  28.0000 Du        
    375 ****       -29.2500   1.0000  28.2500 Du        
    376 ****       -29.2500   1.0000  28.5000 Du        
    377 ****       -29.2500   1.0000  28.7500 Du        
    378 ****       -29.2500   1.0000  29.0000 Du        
    379 ****       -29.2500   1.0000  29.2500 Du        
    380 ****       -29.2500   1.0000  29.5000 Du        
    381 ****       -29.2500   1.0000  29.7500 Du        
    382 ****       -29.2500   1.0000  30.0000 Du        
    383 ****       -29.2500   1.0000  30.2500 Du        
    384 ****       -29.2500   1.2500  26.7500 Du        
    385 ****       -29.2500   1.2500  27.0000 Du        
    386 ****       -29.2500   1.2500  27.2500 Du        
    387 ****       -29.2500   1.2500  27.5000 Du        
    388 ****       -29.2500   1.2500  27.7500 Du        
    389 ****       -29.2500   1.2500  28.0000 Du        
    390 ****       -29.2500   1.2500  28.2500 Du        
    391 ****       -29.2500   1.2500  28.7500 Du        
    392 ****       -29.2500   1.2500  29.0000 Du        
    393 ****       -29.2500   1.2500  29.2500 Du        
    394 ****       -29.2500   2.0000  23.7500 Du        
    395 ****       -29.2500   2.0000  25.0000 Du        
    396 ****       -29.2500   2.2500  24.2500 Du        
    397 ****       -29.2500   2.2500  24.5000 Du        
    398 ****       -29.2500   2.2500  24.7500 Du        
    399 ****       -29.2500   2.2500  25.2500 Du        
    400 ****       -29.0000   0.2500  26.5000 Du        
    401 ****       -29.0000   0.2500  26.7500 Du        
    402 ****       -29.0000   0.2500  27.0000 Du        
    403 ****       -29.0000   0.2500  29.7500 Du        
    404 ****       -29.0000   0.2500  30.0000 Du        
    405 ****       -29.0000   0.5000  26.5000 Du        
    406 ****       -29.0000   0.5000  26.7500 Du        
    407 ****       -29.0000   0.5000  27.0000 Du        
    408 ****       -29.0000   0.5000  29.2500 Du        
    409 ****       -29.0000   0.5000  29.5000 Du        
    410 ****       -29.0000   0.5000  29.7500 Du        
    411 ****       -29.0000   0.5000  30.0000 Du        
    412 ****       -29.0000   0.5000  30.2500 Du        
    413 ****       -29.0000   0.7500  26.2500 Du        
    414 ****       -29.0000   0.7500  26.5000 Du        
    415 ****       -29.0000   0.7500  26.7500 Du        
    416 ****       -29.0000   0.7500  27.0000 Du        
    417 ****       -29.0000   0.7500  27.2500 Du        
    418 ****       -29.0000   0.7500  29.0000 Du        
    419 ****       -29.0000   0.7500  29.2500 Du        
    420 ****       -29.0000   0.7500  29.5000 Du        
    421 ****       -29.0000   0.7500  29.7500 Du        
    422 ****       -29.0000   0.7500  30.0000 Du        
    423 ****       -29.0000   0.7500  30.2500 Du        
    424 ****       -29.0000   1.0000  26.0000 Du        
    425 ****       -29.0000   1.0000  26.2500 Du        
    426 ****       -29.0000   1.0000  26.5000 Du        
    427 ****       -29.0000   1.0000  26.7500 Du        
    428 ****       -29.0000   1.0000  27.0000 Du        
    429 ****       -29.0000   1.0000  27.2500 Du        
    430 ****       -29.0000   1.0000  29.0000 Du        
    431 ****       -29.0000   1.0000  29.2500 Du        
    432 ****       -29.0000   1.0000  29.5000 Du        
    433 ****       -29.0000   1.0000  29.7500 Du        
    434 ****       -29.0000   1.0000  30.0000 Du        
    435 ****       -29.0000   1.0000  30.2500 Du        
    436 ****       -29.0000   1.2500  24.7500 Du        
    437 ****       -29.0000   1.2500  25.2500 Du        
    438 ****       -29.0000   1.2500  25.7500 Du        
    439 ****       -29.0000   1.2500  26.0000 Du        
    440 ****       -29.0000   1.2500  26.2500 Du        
    441 ****       -29.0000   1.2500  26.5000 Du        
    442 ****       -29.0000   1.2500  26.7500 Du        
    443 ****       -29.0000   1.2500  27.0000 Du        
    444 ****       -29.0000   1.2500  27.2500 Du        
    445 ****       -29.0000   1.2500  29.2500 Du        
    446 ****       -29.0000   1.5000  23.5000 Du        
    447 ****       -29.0000   1.5000  23.7500 Du        
    448 ****       -29.0000   1.5000  24.0000 Du        
    449 ****       -29.0000   1.5000  24.2500 Du        
    450 ****       -29.0000   1.5000  24.5000 Du        
    451 ****       -29.0000   1.5000  24.7500 Du        
    452 ****       -29.0000   1.5000  25.0000 Du        
    453 ****       -29.0000   1.5000  25.2500 Du        
    454 ****       -29.0000   1.5000  25.7500 Du        
    455 ****       -29.0000   1.5000  26.0000 Du        
    456 ****       -29.0000   1.5000  26.2500 Du        
    457 ****       -29.0000   1.7500  23.2500 Du        
    458 ****       -29.0000   1.7500  23.5000 Du        
    459 ****       -29.0000   1.7500  23.7500 Du        
    460 ****       -29.0000   1.7500  24.0000 Du        
    461 ****       -29.0000   1.7500  24.2500 Du        
    462 ****       -29.0000   1.7500  24.5000 Du        
    463 ****       -29.0000   1.7500  24.7500 Du        
    464 ****       -29.0000   1.7500  25.0000 Du        
    465 ****       -29.0000   1.7500  25.2500 Du        
    466 ****       -29.0000   1.7500  25.5000 Du        
    467 ****       -29.0000   1.7500  25.7500 Du        
    468 ****       -29.0000   1.7500  26.0000 Du        
    469 ****       -29.0000   1.7500  26.2500 Du        
    470 ****       -29.0000   2.0000  23.5000 Du        
    471 ****       -29.0000   2.0000  23.7500 Du        
    472 ****       -29.0000   2.0000  24.0000 Du        
    473 ****       -29.0000   2.0000  24.2500 Du        
    474 ****       -29.0000   2.0000  24.5000 Du        
    475 ****       -29.0000   2.0000  24.7500 Du        
    476 ****       -29.0000   2.0000  25.0000 Du        
    477 ****       -29.0000   2.0000  25.2500 Du        
    478 ****       -29.0000   2.0000  25.7500 Du        
    479 ****       -29.0000   2.2500  23.7500 Du        
    480 ****       -29.0000   2.2500  24.0000 Du        
    481 ****       -29.0000   2.2500  24.2500 Du        
    482 ****       -29.0000   2.2500  24.5000 Du        
    483 ****       -29.0000   2.2500  24.7500 Du        
    484 ****       -29.0000   2.2500  25.0000 Du        
    485 ****       -29.0000   2.2500  25.2500 Du        
    486 ****       -28.7500  -9.5000  34.0000 Du        
    487 ****       -28.7500  -9.5000  34.2500 Du        
    488 ****       -28.7500  -9.2500  34.0000 Du        
    489 ****       -28.7500  -9.2500  34.2500 Du        
    490 ****       -28.7500  -9.0000  34.2500 Du        
    491 ****       -28.7500  -0.2500  25.7500 Du        
    492 ****       -28.7500  -0.2500  26.0000 Du        
    493 ****       -28.7500   0.0000  25.7500 Du        
    494 ****       -28.7500   0.0000  26.0000 Du        
    495 ****       -28.7500   0.0000  26.2500 Du        
    496 ****       -28.7500   0.2500  25.2500 Du        
    497 ****       -28.7500   0.2500  25.5000 Du        
    498 ****       -28.7500   0.2500  25.7500 Du        
    499 ****       -28.7500   0.2500  26.0000 Du        
    500 ****       -28.7500   0.2500  26.2500 Du        
    501 ****       -28.7500   0.2500  26.5000 Du        
    502 ****       -28.7500   0.5000  25.2500 Du        
    503 ****       -28.7500   0.5000  25.7500 Du        
    504 ****       -28.7500   0.5000  26.0000 Du        
    505 ****       -28.7500   0.5000  26.2500 Du        
    506 ****       -28.7500   0.5000  26.5000 Du        
    507 ****       -28.7500   0.5000  30.2500 Du        
    508 ****       -28.7500   0.7500  24.0000 Du        
    509 ****       -28.7500   0.7500  24.2500 Du        
    510 ****       -28.7500   0.7500  24.5000 Du        
    511 ****       -28.7500   0.7500  24.7500 Du        
    512 ****       -28.7500   0.7500  25.0000 Du        
    513 ****       -28.7500   0.7500  25.2500 Du        
    514 ****       -28.7500   0.7500  25.5000 Du        
    515 ****       -28.7500   0.7500  25.7500 Du        
    516 ****       -28.7500   0.7500  26.0000 Du        
    517 ****       -28.7500   0.7500  26.2500 Du        
    518 ****       -28.7500   0.7500  26.5000 Du        
    519 ****       -28.7500   0.7500  26.7500 Du        
    520 ****       -28.7500   0.7500  29.7500 Du        
    521 ****       -28.7500   0.7500  30.0000 Du        
    522 ****       -28.7500   0.7500  30.2500 Du        
    523 ****       -28.7500   1.0000  23.7500 Du        
    524 ****       -28.7500   1.0000  24.0000 Du        
    525 ****       -28.7500   1.0000  24.2500 Du        
    526 ****       -28.7500   1.0000  24.5000 Du        
    527 ****       -28.7500   1.0000  24.7500 Du        
    528 ****       -28.7500   1.0000  25.0000 Du        
    529 ****       -28.7500   1.0000  25.2500 Du        
    530 ****       -28.7500   1.0000  25.5000 Du        
    531 ****       -28.7500   1.0000  25.7500 Du        
    532 ****       -28.7500   1.0000  26.0000 Du        
    533 ****       -28.7500   1.0000  26.2500 Du        
    534 ****       -28.7500   1.0000  26.5000 Du        
    535 ****       -28.7500   1.0000  26.7500 Du        
    536 ****       -28.7500   1.0000  29.7500 Du        
    537 ****       -28.7500   1.0000  30.0000 Du        
    538 ****       -28.7500   1.0000  30.2500 Du        
    539 ****       -28.7500   1.2500  23.5000 Du        
    540 ****       -28.7500   1.2500  23.7500 Du        
    541 ****       -28.7500   1.2500  24.0000 Du        
    542 ****       -28.7500   1.2500  24.2500 Du        
    543 ****       -28.7500   1.2500  24.5000 Du        
    544 ****       -28.7500   1.2500  24.7500 Du        
    545 ****       -28.7500   1.2500  25.0000 Du        
    546 ****       -28.7500   1.2500  25.2500 Du        
    547 ****       -28.7500   1.2500  25.5000 Du        
    548 ****       -28.7500   1.2500  25.7500 Du        
    549 ****       -28.7500   1.2500  26.0000 Du        
    550 ****       -28.7500   1.2500  26.2500 Du        
    551 ****       -28.7500   1.2500  26.5000 Du        
    552 ****       -28.7500   1.2500  26.7500 Du        
    553 ****       -28.7500   1.2500  30.0000 Du        
    554 ****       -28.7500   1.5000  23.2500 Du        
    555 ****       -28.7500   1.5000  23.5000 Du        
    556 ****       -28.7500   1.5000  23.7500 Du        
    557 ****       -28.7500   1.5000  24.0000 Du        
    558 ****       -28.7500   1.5000  24.2500 Du        
    559 ****       -28.7500   1.5000  24.5000 Du        
    560 ****       -28.7500   1.5000  24.7500 Du        
    561 ****       -28.7500   1.5000  25.0000 Du        
    562 ****       -28.7500   1.5000  25.2500 Du        
    563 ****       -28.7500   1.5000  25.5000 Du        
    564 ****       -28.7500   1.5000  25.7500 Du        
    565 ****       -28.7500   1.5000  26.0000 Du        
    566 ****       -28.7500   1.5000  26.2500 Du        
    567 ****       -28.7500   1.7500  23.2500 Du        
    568 ****       -28.7500   1.7500  23.5000 Du        
    569 ****       -28.7500   1.7500  23.7500 Du        
    570 ****       -28.7500   1.7500  24.0000 Du        
    571 ****       -28.7500   1.7500  24.2500 Du        
    572 ****       -28.7500   1.7500  24.5000 Du        
    573 ****       -28.7500   1.7500  24.7500 Du        
    574 ****       -28.7500   1.7500  25.0000 Du        
    575 ****       -28.7500   1.7500  25.2500 Du        
    576 ****       -28.7500   1.7500  25.5000 Du        
    577 ****       -28.7500   1.7500  25.7500 Du        
    578 ****       -28.7500   1.7500  26.0000 Du        
    579 ****       -28.7500   2.0000  23.5000 Du        
    580 ****       -28.7500   2.0000  23.7500 Du        
    581 ****       -28.7500   2.0000  24.0000 Du        
    582 ****       -28.7500   2.0000  24.2500 Du        
    583 ****       -28.7500   2.0000  24.5000 Du        
    584 ****       -28.7500   2.0000  24.7500 Du        
    585 ****       -28.7500   2.0000  25.0000 Du        
    586 ****       -28.7500   2.0000  25.2500 Du        
    587 ****       -28.7500   2.2500  23.7500 Du        
    588 ****       -28.7500   2.2500  24.0000 Du        
    589 ****       -28.7500   2.2500  24.2500 Du        
    590 ****       -28.7500   2.2500  24.5000 Du        
    591 ****       -28.7500   2.2500  24.7500 Du        
    592 ****       -28.7500   2.2500  25.0000 Du        
    593 ****       -28.7500   2.2500  25.2500 Du        
    594 ****       -28.5000  -9.7500  34.2500 Du        
    595 ****       -28.5000  -9.5000  34.2500 Du        
    596 ****       -28.5000  -9.2500  34.0000 Du        
    597 ****       -28.5000  -9.2500  34.2500 Du        
    598 ****       -28.5000  -9.2500  34.5000 Du        
    599 ****       -28.5000  -9.0000  34.0000 Du        
    600 ****       -28.5000  -9.0000  34.2500 Du        
    601 ****       -28.5000  -9.0000  34.5000 Du        
    602 ****       -28.5000  -8.7500  34.0000 Du        
    603 ****       -28.5000  -8.7500  34.2500 Du        
    604 ****       -28.5000  -8.7500  34.5000 Du        
    605 ****       -28.5000  -8.5000  34.2500 Du        
    606 ****       -28.5000  -0.7500  25.0000 Du        
    607 ****       -28.5000  -0.7500  25.2500 Du        
    608 ****       -28.5000  -0.7500  25.5000 Du        
    609 ****       -28.5000  -0.5000  25.0000 Du        
    610 ****       -28.5000  -0.5000  25.2500 Du        
    611 ****       -28.5000  -0.5000  25.5000 Du        
    612 ****       -28.5000  -0.2500  24.7500 Du        
    613 ****       -28.5000  -0.2500  25.0000 Du        
    614 ****       -28.5000  -0.2500  25.2500 Du        
    615 ****       -28.5000  -0.2500  25.5000 Du        
    616 ****       -28.5000  -0.2500  25.7500 Du        
    617 ****       -28.5000  -0.2500  26.0000 Du        
    618 ****       -28.5000   0.0000  24.2500 Du        
    619 ****       -28.5000   0.0000  24.5000 Du        
    620 ****       -28.5000   0.0000  24.7500 Du        
    621 ****       -28.5000   0.0000  25.0000 Du        
    622 ****       -28.5000   0.0000  25.2500 Du        
    623 ****       -28.5000   0.0000  25.5000 Du        
    624 ****       -28.5000   0.0000  25.7500 Du        
    625 ****       -28.5000   0.0000  26.0000 Du        
    626 ****       -28.5000   0.2500  24.0000 Du        
    627 ****       -28.5000   0.2500  24.2500 Du        
    628 ****       -28.5000   0.2500  24.5000 Du        
    629 ****       -28.5000   0.2500  24.7500 Du        
    630 ****       -28.5000   0.2500  25.0000 Du        
    631 ****       -28.5000   0.2500  25.2500 Du        
    632 ****       -28.5000   0.2500  25.5000 Du        
    633 ****       -28.5000   0.2500  25.7500 Du        
    634 ****       -28.5000   0.2500  26.0000 Du        
    635 ****       -28.5000   0.2500  26.2500 Du        
    636 ****       -28.5000   0.5000  24.0000 Du        
    637 ****       -28.5000   0.5000  24.2500 Du        
    638 ****       -28.5000   0.5000  24.5000 Du        
    639 ****       -28.5000   0.5000  24.7500 Du        
    640 ****       -28.5000   0.5000  25.0000 Du        
    641 ****       -28.5000   0.5000  25.2500 Du        
    642 ****       -28.5000   0.5000  25.5000 Du        
    643 ****       -28.5000   0.5000  25.7500 Du        
    644 ****       -28.5000   0.5000  26.0000 Du        
    645 ****       -28.5000   0.5000  26.2500 Du        
    646 ****       -28.5000   0.7500  23.7500 Du        
    647 ****       -28.5000   0.7500  24.0000 Du        
    648 ****       -28.5000   0.7500  24.2500 Du        
    649 ****       -28.5000   0.7500  24.5000 Du        
    650 ****       -28.5000   0.7500  24.7500 Du        
    651 ****       -28.5000   0.7500  25.0000 Du        
    652 ****       -28.5000   0.7500  25.2500 Du        
    653 ****       -28.5000   0.7500  25.5000 Du        
    654 ****       -28.5000   0.7500  25.7500 Du        
    655 ****       -28.5000   0.7500  26.0000 Du        
    656 ****       -28.5000   0.7500  26.2500 Du        
    657 ****       -28.5000   1.0000  23.5000 Du        
    658 ****       -28.5000   1.0000  23.7500 Du        
    659 ****       -28.5000   1.0000  24.0000 Du        
    660 ****       -28.5000   1.0000  24.2500 Du        
    661 ****       -28.5000   1.0000  24.5000 Du        
    662 ****       -28.5000   1.0000  24.7500 Du        
    663 ****       -28.5000   1.0000  25.0000 Du        
    664 ****       -28.5000   1.0000  25.2500 Du        
    665 ****       -28.5000   1.0000  25.5000 Du        
    666 ****       -28.5000   1.0000  25.7500 Du        
    667 ****       -28.5000   1.0000  26.0000 Du        
    668 ****       -28.5000   1.0000  26.2500 Du        
    669 ****       -28.5000   1.0000  30.2500 Du        
    670 ****       -28.5000   1.0000  30.5000 Du        
    671 ****       -28.5000   1.0000  30.7500 Du        
    672 ****       -28.5000   1.2500  23.2500 Du        
    673 ****       -28.5000   1.2500  23.5000 Du        
    674 ****       -28.5000   1.2500  23.7500 Du        
    675 ****       -28.5000   1.2500  24.0000 Du        
    676 ****       -28.5000   1.2500  24.2500 Du        
    677 ****       -28.5000   1.2500  24.5000 Du        
    678 ****       -28.5000   1.2500  24.7500 Du        
    679 ****       -28.5000   1.2500  25.0000 Du        
    680 ****       -28.5000   1.2500  25.2500 Du        
    681 ****       -28.5000   1.2500  25.5000 Du        
    682 ****       -28.5000   1.2500  25.7500 Du        
    683 ****       -28.5000   1.2500  26.0000 Du        
    684 ****       -28.5000   1.2500  26.2500 Du        
    685 ****       -28.5000   1.2500  30.2500 Du        
    686 ****       -28.5000   1.2500  30.5000 Du        
    687 ****       -28.5000   1.5000  23.2500 Du        
    688 ****       -28.5000   1.5000  23.5000 Du        
    689 ****       -28.5000   1.5000  23.7500 Du        
    690 ****       -28.5000   1.5000  24.0000 Du        
    691 ****       -28.5000   1.5000  24.2500 Du        
    692 ****       -28.5000   1.5000  24.5000 Du        
    693 ****       -28.5000   1.5000  24.7500 Du        
    694 ****       -28.5000   1.5000  25.0000 Du        
    695 ****       -28.5000   1.5000  25.2500 Du        
    696 ****       -28.5000   1.5000  25.5000 Du        
    697 ****       -28.5000   1.5000  25.7500 Du        
    698 ****       -28.5000   1.5000  26.0000 Du        
    699 ****       -28.5000   1.5000  26.2500 Du        
    700 ****       -28.5000   1.7500  23.2500 Du        
    701 ****       -28.5000   1.7500  23.5000 Du        
    702 ****       -28.5000   1.7500  23.7500 Du        
    703 ****       -28.5000   1.7500  24.0000 Du        
    704 ****       -28.5000   1.7500  24.2500 Du        
    705 ****       -28.5000   1.7500  24.5000 Du        
    706 ****       -28.5000   1.7500  24.7500 Du        
    707 ****       -28.5000   1.7500  25.0000 Du        
    708 ****       -28.5000   1.7500  25.2500 Du        
    709 ****       -28.5000   1.7500  25.5000 Du        
    710 ****       -28.5000   1.7500  25.7500 Du        
    711 ****       -28.5000   1.7500  26.0000 Du        
    712 ****       -28.5000   1.7500  26.2500 Du        
    713 ****       -28.5000   2.0000  23.5000 Du        
    714 ****       -28.5000   2.0000  23.7500 Du        
    715 ****       -28.5000   2.0000  24.0000 Du        
    716 ****       -28.5000   2.0000  24.2500 Du        
    717 ****       -28.5000   2.0000  24.5000 Du        
    718 ****       -28.5000   2.0000  24.7500 Du        
    719 ****       -28.5000   2.0000  25.0000 Du        
    720 ****       -28.5000   2.0000  25.2500 Du        
    721 ****       -28.5000   2.0000  25.5000 Du        
    722 ****       -28.5000   2.0000  25.7500 Du        
    723 ****       -28.5000   2.2500  23.7500 Du        
    724 ****       -28.5000   2.2500  24.0000 Du        
    725 ****       -28.5000   2.2500  24.2500 Du        
    726 ****       -28.5000   2.2500  24.5000 Du        
    727 ****       -28.5000   2.2500  24.7500 Du        
    728 ****       -28.5000   2.2500  25.0000 Du        
    729 ****       -28.5000   2.2500  25.2500 Du        
    730 ****       -28.2500  -9.5000  34.2500 Du        
    731 ****       -28.2500  -9.2500  34.0000 Du        
    732 ****       -28.2500  -9.2500  34.2500 Du        
    733 ****       -28.2500  -9.2500  34.5000 Du        
    734 ****       -28.2500  -9.0000  33.7500 Du        
    735 ****       -28.2500  -9.0000  34.0000 Du        
    736 ****       -28.2500  -9.0000  34.2500 Du        
    737 ****       -28.2500  -9.0000  34.5000 Du        
    738 ****       -28.2500  -9.0000  34.7500 Du        
    739 ****       -28.2500  -8.7500  33.7500 Du        
    740 ****       -28.2500  -8.7500  34.0000 Du        
    741 ****       -28.2500  -8.7500  34.2500 Du        
    742 ****       -28.2500  -8.7500  34.5000 Du        
    743 ****       -28.2500  -8.7500  34.7500 Du        
    744 ****       -28.2500  -8.5000  34.0000 Du        
    745 ****       -28.2500  -8.5000  34.2500 Du        
    746 ****       -28.2500  -8.5000  34.5000 Du        
    747 ****       -28.2500  -8.2500  34.0000 Du        
    748 ****       -28.2500  -8.2500  34.2500 Du        
    749 ****       -28.2500  -8.2500  34.5000 Du        
    750 ****       -28.2500  -8.2500  34.7500 Du        
    751 ****       -28.2500  -8.0000  34.0000 Du        
    752 ****       -28.2500  -8.0000  34.2500 Du        
    753 ****       -28.2500  -8.0000  34.5000 Du        
    754 ****       -28.2500  -8.0000  34.7500 Du        
    755 ****       -28.2500  -7.7500  34.0000 Du        
    756 ****       -28.2500  -7.7500  34.2500 Du        
    757 ****       -28.2500  -7.7500  34.5000 Du        
    758 ****       -28.2500  -7.7500  34.7500 Du        
    759 ****       -28.2500  -7.5000  34.0000 Du        
    760 ****       -28.2500  -7.5000  34.2500 Du        
    761 ****       -28.2500  -7.5000  34.5000 Du        
    762 ****       -28.2500  -7.2500  34.2500 Du        
    763 ****       -28.2500  -7.2500  34.5000 Du        
    764 ****       -28.2500  -7.2500  34.7500 Du        
    765 ****       -28.2500  -7.0000  34.2500 Du        
    766 ****       -28.2500  -7.0000  34.7500 Du        
    767 ****       -28.2500  -0.7500  24.7500 Du        
    768 ****       -28.2500  -0.7500  25.0000 Du        
    769 ****       -28.2500  -0.7500  25.2500 Du        
    770 ****       -28.2500  -0.5000  24.5000 Du        
    771 ****       -28.2500  -0.5000  24.7500 Du        
    772 ****       -28.2500  -0.5000  25.0000 Du        
    773 ****       -28.2500  -0.5000  25.2500 Du        
    774 ****       -28.2500  -0.5000  25.5000 Du        
    775 ****       -28.2500  -0.2500  24.2500 Du        
    776 ****       -28.2500  -0.2500  24.5000 Du        
    777 ****       -28.2500  -0.2500  24.7500 Du        
    778 ****       -28.2500  -0.2500  25.0000 Du        
    779 ****       -28.2500  -0.2500  25.2500 Du        
    780 ****       -28.2500  -0.2500  25.5000 Du        
    781 ****       -28.2500  -0.2500  25.7500 Du        
    782 ****       -28.2500   0.0000  24.0000 Du        
    783 ****       -28.2500   0.0000  24.2500 Du        
    784 ****       -28.2500   0.0000  24.5000 Du        
    785 ****       -28.2500   0.0000  24.7500 Du        
    786 ****       -28.2500   0.0000  25.0000 Du        
    787 ****       -28.2500   0.0000  25.2500 Du        
    788 ****       -28.2500   0.0000  25.5000 Du        
    789 ****       -28.2500   0.0000  25.7500 Du        
    790 ****       -28.2500   0.2500  23.7500 Du        
    791 ****       -28.2500   0.2500  24.0000 Du        
    792 ****       -28.2500   0.2500  24.2500 Du        
    793 ****       -28.2500   0.2500  24.5000 Du        
    794 ****       -28.2500   0.2500  24.7500 Du        
    795 ****       -28.2500   0.2500  25.0000 Du        
    796 ****       -28.2500   0.2500  25.2500 Du        
    797 ****       -28.2500   0.2500  25.5000 Du        
    798 ****       -28.2500   0.2500  25.7500 Du        
    799 ****       -28.2500   0.2500  26.0000 Du        
    800 ****       -28.2500   0.5000  23.7500 Du        
    801 ****       -28.2500   0.5000  24.0000 Du        
    802 ****       -28.2500   0.5000  24.2500 Du        
    803 ****       -28.2500   0.5000  24.5000 Du        
    804 ****       -28.2500   0.5000  24.7500 Du        
    805 ****       -28.2500   0.5000  25.0000 Du        
    806 ****       -28.2500   0.5000  25.2500 Du        
    807 ****       -28.2500   0.5000  25.5000 Du        
    808 ****       -28.2500   0.5000  25.7500 Du        
    809 ****       -28.2500   0.5000  26.0000 Du        
    810 ****       -28.2500   0.7500  23.5000 Du        
    811 ****       -28.2500   0.7500  23.7500 Du        
    812 ****       -28.2500   0.7500  24.0000 Du        
    813 ****       -28.2500   0.7500  24.2500 Du        
    814 ****       -28.2500   0.7500  24.5000 Du        
    815 ****       -28.2500   0.7500  24.7500 Du        
    816 ****       -28.2500   0.7500  25.0000 Du        
    817 ****       -28.2500   0.7500  25.2500 Du        
    818 ****       -28.2500   0.7500  25.5000 Du        
    819 ****       -28.2500   0.7500  25.7500 Du        
    820 ****       -28.2500   0.7500  26.0000 Du        
    821 ****       -28.2500   1.0000  23.2500 Du        
    822 ****       -28.2500   1.0000  23.5000 Du        
    823 ****       -28.2500   1.0000  23.7500 Du        
    824 ****       -28.2500   1.0000  24.0000 Du        
    825 ****       -28.2500   1.0000  24.2500 Du        
    826 ****       -28.2500   1.0000  24.5000 Du        
    827 ****       -28.2500   1.0000  24.7500 Du        
    828 ****       -28.2500   1.0000  25.0000 Du        
    829 ****       -28.2500   1.0000  25.2500 Du        
    830 ****       -28.2500   1.0000  25.5000 Du        
    831 ****       -28.2500   1.0000  25.7500 Du        
    832 ****       -28.2500   1.0000  26.0000 Du        
    833 ****       -28.2500   1.0000  30.7500 Du        
    834 ****       -28.2500   1.2500  23.2500 Du        
    835 ****       -28.2500   1.2500  23.5000 Du        
    836 ****       -28.2500   1.2500  23.7500 Du        
    837 ****       -28.2500   1.2500  24.0000 Du        
    838 ****       -28.2500   1.2500  24.2500 Du        
    839 ****       -28.2500   1.2500  24.5000 Du        
    840 ****       -28.2500   1.2500  24.7500 Du        
    841 ****       -28.2500   1.2500  25.0000 Du        
    842 ****       -28.2500   1.2500  25.2500 Du        
    843 ****       -28.2500   1.2500  25.5000 Du        
    844 ****       -28.2500   1.2500  25.7500 Du        
    845 ****       -28.2500   1.2500  26.0000 Du        
    846 ****       -28.2500   1.2500  26.2500 Du        
    847 ****       -28.2500   1.2500  30.5000 Du        
    848 ****       -28.2500   1.5000  23.2500 Du        
    849 ****       -28.2500   1.5000  23.5000 Du        
    850 ****       -28.2500   1.5000  23.7500 Du        
    851 ****       -28.2500   1.5000  24.0000 Du        
    852 ****       -28.2500   1.5000  24.2500 Du        
    853 ****       -28.2500   1.5000  24.5000 Du        
    854 ****       -28.2500   1.5000  24.7500 Du        
    855 ****       -28.2500   1.5000  25.0000 Du        
    856 ****       -28.2500   1.5000  25.2500 Du        
    857 ****       -28.2500   1.5000  25.5000 Du        
    858 ****       -28.2500   1.5000  25.7500 Du        
    859 ****       -28.2500   1.5000  26.0000 Du        
    860 ****       -28.2500   1.7500  23.2500 Du        
    861 ****       -28.2500   1.7500  23.5000 Du        
    862 ****       -28.2500   1.7500  23.7500 Du        
    863 ****       -28.2500   1.7500  24.0000 Du        
    864 ****       -28.2500   1.7500  24.2500 Du        
    865 ****       -28.2500   1.7500  24.5000 Du        
    866 ****       -28.2500   1.7500  24.7500 Du        
    867 ****       -28.2500   1.7500  25.0000 Du        
    868 ****       -28.2500   1.7500  25.2500 Du        
    869 ****       -28.2500   1.7500  25.5000 Du        
    870 ****       -28.2500   1.7500  25.7500 Du        
    871 ****       -28.2500   1.7500  26.0000 Du        
    872 ****       -28.2500   2.0000  23.5000 Du        
    873 ****       -28.2500   2.0000  23.7500 Du        
    874 ****       -28.2500   2.0000  24.0000 Du        
    875 ****       -28.2500   2.0000  24.2500 Du        
    876 ****       -28.2500   2.0000  24.5000 Du        
    877 ****       -28.2500   2.0000  24.7500 Du        
    878 ****       -28.2500   2.0000  25.0000 Du        
    879 ****       -28.2500   2.0000  25.2500 Du        
    880 ****       -28.2500   2.0000  25.5000 Du        
    881 ****       -28.2500   2.0000  25.7500 Du        
    882 ****       -28.2500   2.2500  23.7500 Du        
    883 ****       -28.2500   2.2500  24.0000 Du        
    884 ****       -28.2500   2.2500  24.2500 Du        
    885 ****       -28.2500   2.2500  24.5000 Du        
    886 ****       -28.2500   2.2500  24.7500 Du        
    887 ****       -28.2500   2.2500  25.0000 Du        
    888 ****       -28.2500   2.2500  25.2500 Du        
    889 ****       -28.0000  -9.2500  34.0000 Du        
    890 ****       -28.0000  -9.2500  34.2500 Du        
    891 ****       -28.0000  -9.2500  34.5000 Du        
    892 ****       -28.0000  -9.2500  34.7500 Du        
    893 ****       -28.0000  -9.0000  33.7500 Du        
    894 ****       -28.0000  -9.0000  34.0000 Du        
    895 ****       -28.0000  -9.0000  34.2500 Du        
    896 ****       -28.0000  -9.0000  34.5000 Du        
    897 ****       -28.0000  -9.0000  34.7500 Du        
    898 ****       -28.0000  -8.7500  33.7500 Du        
    899 ****       -28.0000  -8.7500  34.0000 Du        
    900 ****       -28.0000  -8.7500  34.2500 Du        
    901 ****       -28.0000  -8.7500  34.5000 Du        
    902 ****       -28.0000  -8.7500  34.7500 Du        
    903 ****       -28.0000  -8.5000  33.7500 Du        
    904 ****       -28.0000  -8.5000  34.0000 Du        
    905 ****       -28.0000  -8.5000  34.2500 Du        
    906 ****       -28.0000  -8.5000  34.5000 Du        
    907 ****       -28.0000  -8.2500  33.7500 Du        
    908 ****       -28.0000  -8.2500  34.0000 Du        
    909 ****       -28.0000  -8.2500  34.2500 Du        
    910 ****       -28.0000  -8.2500  34.5000 Du        
    911 ****       -28.0000  -8.2500  34.7500 Du        
    912 ****       -28.0000  -8.0000  33.7500 Du        
    913 ****       -28.0000  -8.0000  34.0000 Du        
    914 ****       -28.0000  -8.0000  34.2500 Du        
    915 ****       -28.0000  -8.0000  34.5000 Du        
    916 ****       -28.0000  -8.0000  34.7500 Du        
    917 ****       -28.0000  -7.7500  33.7500 Du        
    918 ****       -28.0000  -7.7500  34.0000 Du        
    919 ****       -28.0000  -7.7500  34.2500 Du        
    920 ****       -28.0000  -7.7500  34.5000 Du        
    921 ****       -28.0000  -7.7500  34.7500 Du        
    922 ****       -28.0000  -7.7500  35.0000 Du        
    923 ****       -28.0000  -7.5000  34.0000 Du        
    924 ****       -28.0000  -7.5000  34.2500 Du        
    925 ****       -28.0000  -7.5000  34.5000 Du        
    926 ****       -28.0000  -7.5000  34.7500 Du        
    927 ****       -28.0000  -7.2500  34.0000 Du        
    928 ****       -28.0000  -7.2500  34.2500 Du        
    929 ****       -28.0000  -7.2500  34.5000 Du        
    930 ****       -28.0000  -7.2500  34.7500 Du        
    931 ****       -28.0000  -7.2500  35.0000 Du        
    932 ****       -28.0000  -7.0000  34.2500 Du        
    933 ****       -28.0000  -7.0000  34.5000 Du        
    934 ****       -28.0000  -7.0000  34.7500 Du        
    935 ****       -28.0000  -7.0000  35.0000 Du        
    936 ****       -28.0000  -6.7500  34.7500 Du        
    937 ****       -28.0000  -6.7500  35.0000 Du        
    938 ****       -28.0000  -0.5000  24.2500 Du        
    939 ****       -28.0000  -0.5000  24.5000 Du        
    940 ****       -28.0000  -0.5000  24.7500 Du        
    941 ****       -28.0000  -0.5000  25.0000 Du        
    942 ****       -28.0000  -0.2500  23.7500 Du        
    943 ****       -28.0000  -0.2500  24.0000 Du        
    944 ****       -28.0000  -0.2500  24.2500 Du        
    945 ****       -28.0000  -0.2500  24.5000 Du        
    946 ****       -28.0000  -0.2500  24.7500 Du        
    947 ****       -28.0000  -0.2500  25.0000 Du        
    948 ****       -28.0000  -0.2500  25.2500 Du        
    949 ****       -28.0000  -0.2500  25.5000 Du        
    950 ****       -28.0000   0.0000  23.7500 Du        
    951 ****       -28.0000   0.0000  24.0000 Du        
    952 ****       -28.0000   0.0000  24.2500 Du        
    953 ****       -28.0000   0.0000  24.5000 Du        
    954 ****       -28.0000   0.0000  24.7500 Du        
    955 ****       -28.0000   0.0000  25.0000 Du        
    956 ****       -28.0000   0.0000  25.2500 Du        
    957 ****       -28.0000   0.0000  25.5000 Du        
    958 ****       -28.0000   0.2500  23.5000 Du        
    959 ****       -28.0000   0.2500  23.7500 Du        
    960 ****       -28.0000   0.2500  24.0000 Du        
    961 ****       -28.0000   0.2500  24.2500 Du        
    962 ****       -28.0000   0.2500  24.5000 Du        
    963 ****       -28.0000   0.2500  24.7500 Du        
    964 ****       -28.0000   0.2500  25.0000 Du        
    965 ****       -28.0000   0.2500  25.2500 Du        
    966 ****       -28.0000   0.2500  25.5000 Du        
    967 ****       -28.0000   0.2500  25.7500 Du        
    968 ****       -28.0000   0.5000  23.5000 Du        
    969 ****       -28.0000   0.5000  23.7500 Du        
    970 ****       -28.0000   0.5000  24.0000 Du        
    971 ****       -28.0000   0.5000  24.2500 Du        
    972 ****       -28.0000   0.5000  24.5000 Du        
    973 ****       -28.0000   0.5000  24.7500 Du        
    974 ****       -28.0000   0.5000  25.0000 Du        
    975 ****       -28.0000   0.5000  25.2500 Du        
    976 ****       -28.0000   0.5000  25.5000 Du        
    977 ****       -28.0000   0.5000  25.7500 Du        
    978 ****       -28.0000   0.7500  23.2500 Du        
    979 ****       -28.0000   0.7500  23.5000 Du        
    980 ****       -28.0000   0.7500  23.7500 Du        
    981 ****       -28.0000   0.7500  24.0000 Du        
    982 ****       -28.0000   0.7500  24.2500 Du        
    983 ****       -28.0000   0.7500  24.5000 Du        
    984 ****       -28.0000   0.7500  24.7500 Du        
    985 ****       -28.0000   0.7500  25.0000 Du        
    986 ****       -28.0000   0.7500  25.2500 Du        
    987 ****       -28.0000   0.7500  25.5000 Du        
    988 ****       -28.0000   0.7500  25.7500 Du        
    989 ****       -28.0000   1.0000  23.2500 Du        
    990 ****       -28.0000   1.0000  23.5000 Du        
    991 ****       -28.0000   1.0000  23.7500 Du        
    992 ****       -28.0000   1.0000  24.0000 Du        
    993 ****       -28.0000   1.0000  24.2500 Du        
    994 ****       -28.0000   1.0000  24.5000 Du        
    995 ****       -28.0000   1.0000  24.7500 Du        
    996 ****       -28.0000   1.0000  25.0000 Du        
    997 ****       -28.0000   1.0000  25.2500 Du        
    998 ****       -28.0000   1.0000  25.5000 Du        
    999 ****       -28.0000   1.0000  25.7500 Du        
   1000 ****       -28.0000   1.2500  23.2500 Du        
   1001 ****       -28.0000   1.2500  23.5000 Du        
   1002 ****       -28.0000   1.2500  23.7500 Du        
   1003 ****       -28.0000   1.2500  24.0000 Du        
   1004 ****       -28.0000   1.2500  24.2500 Du        
   1005 ****       -28.0000   1.2500  24.5000 Du        
   1006 ****       -28.0000   1.2500  24.7500 Du        
   1007 ****       -28.0000   1.2500  25.0000 Du        
   1008 ****       -28.0000   1.2500  25.2500 Du        
   1009 ****       -28.0000   1.2500  25.5000 Du        
   1010 ****       -28.0000   1.2500  25.7500 Du        
   1011 ****       -28.0000   1.2500  26.0000 Du        
   1012 ****       -28.0000   1.2500  31.0000 Du        
   1013 ****       -28.0000   1.5000  23.2500 Du        
   1014 ****       -28.0000   1.5000  23.5000 Du        
   1015 ****       -28.0000   1.5000  23.7500 Du        
   1016 ****       -28.0000   1.5000  24.0000 Du        
   1017 ****       -28.0000   1.5000  24.2500 Du        
   1018 ****       -28.0000   1.5000  24.5000 Du        
   1019 ****       -28.0000   1.5000  24.7500 Du        
   1020 ****       -28.0000   1.5000  25.0000 Du        
   1021 ****       -28.0000   1.5000  25.2500 Du        
   1022 ****       -28.0000   1.5000  25.5000 Du        
   1023 ****       -28.0000   1.5000  25.7500 Du        
   1024 ****       -28.0000   1.5000  26.0000 Du        
   1025 ****       -28.0000   1.7500  23.2500 Du        
   1026 ****       -28.0000   1.7500  23.5000 Du        
   1027 ****       -28.0000   1.7500  23.7500 Du        
   1028 ****       -28.0000   1.7500  24.0000 Du        
   1029 ****       -28.0000   1.7500  24.2500 Du        
   1030 ****       -28.0000   1.7500  24.5000 Du        
   1031 ****       -28.0000   1.7500  24.7500 Du        
   1032 ****       -28.0000   1.7500  25.0000 Du        
   1033 ****       -28.0000   1.7500  25.2500 Du        
   1034 ****       -28.0000   1.7500  25.5000 Du        
   1035 ****       -28.0000   1.7500  25.7500 Du        
   1036 ****       -28.0000   1.7500  26.0000 Du        
   1037 ****       -28.0000   2.0000  23.2500 Du        
   1038 ****       -28.0000   2.0000  23.5000 Du        
   1039 ****       -28.0000   2.0000  23.7500 Du        
   1040 ****       -28.0000   2.0000  24.0000 Du        
   1041 ****       -28.0000   2.0000  24.2500 Du        
   1042 ****       -28.0000   2.0000  24.5000 Du        
   1043 ****       -28.0000   2.0000  24.7500 Du        
   1044 ****       -28.0000   2.0000  25.0000 Du        
   1045 ****       -28.0000   2.0000  25.2500 Du        
   1046 ****       -28.0000   2.0000  25.5000 Du        
   1047 ****       -28.0000   2.0000  25.7500 Du        
   1048 ****       -28.0000   2.2500  23.7500 Du        
   1049 ****       -28.0000   2.2500  24.0000 Du        
   1050 ****       -28.0000   2.2500  24.2500 Du        
   1051 ****       -28.0000   2.2500  24.5000 Du        
   1052 ****       -28.0000   2.2500  24.7500 Du        
   1053 ****       -28.0000   2.2500  25.0000 Du        
   1054 ****       -28.0000   2.2500  25.2500 Du        
   1055 ****       -27.7500  -9.2500  34.2500 Du        
   1056 ****       -27.7500  -9.2500  34.7500 Du        
   1057 ****       -27.7500  -9.0000  34.0000 Du        
   1058 ****       -27.7500  -9.0000  34.2500 Du        
   1059 ****       -27.7500  -9.0000  34.5000 Du        
   1060 ****       -27.7500  -9.0000  34.7500 Du        
   1061 ****       -27.7500  -8.7500  33.7500 Du        
   1062 ****       -27.7500  -8.7500  34.0000 Du        
   1063 ****       -27.7500  -8.7500  34.2500 Du        
   1064 ****       -27.7500  -8.7500  34.5000 Du        
   1065 ****       -27.7500  -8.7500  34.7500 Du        
   1066 ****       -27.7500  -8.5000  33.7500 Du        
   1067 ****       -27.7500  -8.5000  34.0000 Du        
   1068 ****       -27.7500  -8.5000  34.2500 Du        
   1069 ****       -27.7500  -8.5000  34.5000 Du        
   1070 ****       -27.7500  -8.5000  34.7500 Du        
   1071 ****       -27.7500  -8.2500  33.5000 Du        
   1072 ****       -27.7500  -8.2500  33.7500 Du        
   1073 ****       -27.7500  -8.2500  34.0000 Du        
   1074 ****       -27.7500  -8.2500  34.2500 Du        
   1075 ****       -27.7500  -8.2500  34.5000 Du        
   1076 ****       -27.7500  -8.2500  34.7500 Du        
   1077 ****       -27.7500  -8.2500  35.0000 Du        
   1078 ****       -27.7500  -8.0000  33.5000 Du        
   1079 ****       -27.7500  -8.0000  33.7500 Du        
   1080 ****       -27.7500  -8.0000  34.0000 Du        
   1081 ****       -27.7500  -8.0000  34.2500 Du        
   1082 ****       -27.7500  -8.0000  34.5000 Du        
   1083 ****       -27.7500  -8.0000  34.7500 Du        
   1084 ****       -27.7500  -8.0000  35.0000 Du        
   1085 ****       -27.7500  -7.7500  33.7500 Du        
   1086 ****       -27.7500  -7.7500  34.0000 Du        
   1087 ****       -27.7500  -7.7500  34.2500 Du        
   1088 ****       -27.7500  -7.7500  34.5000 Du        
   1089 ****       -27.7500  -7.7500  34.7500 Du        
   1090 ****       -27.7500  -7.7500  35.0000 Du        
   1091 ****       -27.7500  -7.5000  33.7500 Du        
   1092 ****       -27.7500  -7.5000  34.0000 Du        
   1093 ****       -27.7500  -7.5000  34.2500 Du        
   1094 ****       -27.7500  -7.5000  34.5000 Du        
   1095 ****       -27.7500  -7.5000  34.7500 Du        
   1096 ****       -27.7500  -7.5000  35.0000 Du        
   1097 ****       -27.7500  -7.2500  34.0000 Du        
   1098 ****       -27.7500  -7.2500  34.2500 Du        
   1099 ****       -27.7500  -7.2500  34.5000 Du        
   1100 ****       -27.7500  -7.2500  34.7500 Du        
   1101 ****       -27.7500  -7.2500  35.0000 Du        
   1102 ****       -27.7500  -7.2500  35.2500 Du        
   1103 ****       -27.7500  -7.0000  34.2500 Du        
   1104 ****       -27.7500  -7.0000  34.5000 Du        
   1105 ****       -27.7500  -7.0000  34.7500 Du        
   1106 ****       -27.7500  -7.0000  35.0000 Du        
   1107 ****       -27.7500  -7.0000  35.2500 Du        
   1108 ****       -27.7500  -6.7500  34.5000 Du        
   1109 ****       -27.7500  -6.7500  34.7500 Du        
   1110 ****       -27.7500  -6.7500  35.0000 Du        
   1111 ****       -27.7500  -6.7500  35.2500 Du        
   1112 ****       -27.7500  -0.5000  24.0000 Du        
   1113 ****       -27.7500  -0.5000  24.2500 Du        
   1114 ****       -27.7500  -0.5000  24.5000 Du        
   1115 ****       -27.7500  -0.5000  24.7500 Du        
   1116 ****       -27.7500  -0.2500  23.7500 Du        
   1117 ****       -27.7500  -0.2500  24.0000 Du        
   1118 ****       -27.7500  -0.2500  24.2500 Du        
   1119 ****       -27.7500  -0.2500  24.5000 Du        
   1120 ****       -27.7500  -0.2500  24.7500 Du        
   1121 ****       -27.7500  -0.2500  25.0000 Du        
   1122 ****       -27.7500  -0.2500  25.2500 Du        
   1123 ****       -27.7500   0.0000  23.5000 Du        
   1124 ****       -27.7500   0.0000  23.7500 Du        
   1125 ****       -27.7500   0.0000  24.0000 Du        
   1126 ****       -27.7500   0.0000  24.2500 Du        
   1127 ****       -27.7500   0.0000  24.5000 Du        
   1128 ****       -27.7500   0.0000  24.7500 Du        
   1129 ****       -27.7500   0.0000  25.0000 Du        
   1130 ****       -27.7500   0.0000  25.2500 Du        
   1131 ****       -27.7500   0.2500  23.5000 Du        
   1132 ****       -27.7500   0.2500  23.7500 Du        
   1133 ****       -27.7500   0.2500  24.0000 Du        
   1134 ****       -27.7500   0.2500  24.2500 Du        
   1135 ****       -27.7500   0.2500  24.5000 Du        
   1136 ****       -27.7500   0.2500  24.7500 Du        
   1137 ****       -27.7500   0.2500  25.0000 Du        
   1138 ****       -27.7500   0.2500  25.2500 Du        
   1139 ****       -27.7500   0.2500  25.5000 Du        
   1140 ****       -27.7500   0.5000  23.2500 Du        
   1141 ****       -27.7500   0.5000  23.5000 Du        
   1142 ****       -27.7500   0.5000  23.7500 Du        
   1143 ****       -27.7500   0.5000  24.0000 Du        
   1144 ****       -27.7500   0.5000  24.2500 Du        
   1145 ****       -27.7500   0.5000  24.5000 Du        
   1146 ****       -27.7500   0.5000  24.7500 Du        
   1147 ****       -27.7500   0.5000  25.0000 Du        
   1148 ****       -27.7500   0.5000  25.2500 Du        
   1149 ****       -27.7500   0.5000  25.5000 Du        
   1150 ****       -27.7500   0.7500  23.2500 Du        
   1151 ****       -27.7500   0.7500  23.5000 Du        
   1152 ****       -27.7500   0.7500  23.7500 Du        
   1153 ****       -27.7500   0.7500  24.0000 Du        
   1154 ****       -27.7500   0.7500  24.2500 Du        
   1155 ****       -27.7500   0.7500  24.5000 Du        
   1156 ****       -27.7500   0.7500  24.7500 Du        
   1157 ****       -27.7500   0.7500  25.0000 Du        
   1158 ****       -27.7500   0.7500  25.2500 Du        
   1159 ****       -27.7500   0.7500  25.5000 Du        
   1160 ****       -27.7500   1.0000  23.2500 Du        
   1161 ****       -27.7500   1.0000  23.5000 Du        
   1162 ****       -27.7500   1.0000  23.7500 Du        
   1163 ****       -27.7500   1.0000  24.0000 Du        
   1164 ****       -27.7500   1.0000  24.2500 Du        
   1165 ****       -27.7500   1.0000  24.5000 Du        
   1166 ****       -27.7500   1.0000  24.7500 Du        
   1167 ****       -27.7500   1.0000  25.0000 Du        
   1168 ****       -27.7500   1.0000  25.2500 Du        
   1169 ****       -27.7500   1.0000  25.5000 Du        
   1170 ****       -27.7500   1.0000  25.7500 Du        
   1171 ****       -27.7500   1.2500  23.0000 Du        
   1172 ****       -27.7500   1.2500  23.2500 Du        
   1173 ****       -27.7500   1.2500  23.5000 Du        
   1174 ****       -27.7500   1.2500  23.7500 Du        
   1175 ****       -27.7500   1.2500  24.0000 Du        
   1176 ****       -27.7500   1.2500  24.2500 Du        
   1177 ****       -27.7500   1.2500  24.5000 Du        
   1178 ****       -27.7500   1.2500  24.7500 Du        
   1179 ****       -27.7500   1.2500  25.0000 Du        
   1180 ****       -27.7500   1.2500  25.2500 Du        
   1181 ****       -27.7500   1.2500  25.5000 Du        
   1182 ****       -27.7500   1.2500  25.7500 Du        
   1183 ****       -27.7500   1.2500  31.0000 Du        
   1184 ****       -27.7500   1.5000  23.0000 Du        
   1185 ****       -27.7500   1.5000  23.2500 Du        
   1186 ****       -27.7500   1.5000  23.5000 Du        
   1187 ****       -27.7500   1.5000  23.7500 Du        
   1188 ****       -27.7500   1.5000  24.0000 Du        
   1189 ****       -27.7500   1.5000  24.2500 Du        
   1190 ****       -27.7500   1.5000  24.5000 Du        
   1191 ****       -27.7500   1.5000  24.7500 Du        
   1192 ****       -27.7500   1.5000  25.0000 Du        
   1193 ****       -27.7500   1.5000  25.2500 Du        
   1194 ****       -27.7500   1.5000  25.5000 Du        
   1195 ****       -27.7500   1.5000  25.7500 Du        
   1196 ****       -27.7500   1.7500  23.2500 Du        
   1197 ****       -27.7500   1.7500  23.5000 Du        
   1198 ****       -27.7500   1.7500  23.7500 Du        
   1199 ****       -27.7500   1.7500  24.0000 Du        
   1200 ****       -27.7500   1.7500  24.2500 Du        
   1201 ****       -27.7500   1.7500  24.5000 Du        
   1202 ****       -27.7500   1.7500  24.7500 Du        
   1203 ****       -27.7500   1.7500  25.0000 Du        
   1204 ****       -27.7500   1.7500  25.2500 Du        
   1205 ****       -27.7500   1.7500  25.5000 Du        
   1206 ****       -27.7500   1.7500  25.7500 Du        
   1207 ****       -27.7500   2.0000  23.2500 Du        
   1208 ****       -27.7500   2.0000  23.5000 Du        
   1209 ****       -27.7500   2.0000  23.7500 Du        
   1210 ****       -27.7500   2.0000  24.0000 Du        
   1211 ****       -27.7500   2.0000  24.2500 Du        
   1212 ****       -27.7500   2.0000  24.5000 Du        
   1213 ****       -27.7500   2.0000  24.7500 Du        
   1214 ****       -27.7500   2.0000  25.0000 Du        
   1215 ****       -27.7500   2.0000  25.2500 Du        
   1216 ****       -27.7500   2.0000  25.5000 Du        
   1217 ****       -27.7500   2.2500  23.5000 Du        
   1218 ****       -27.7500   2.2500  23.7500 Du        
   1219 ****       -27.7500   2.2500  24.0000 Du        
   1220 ****       -27.7500   2.2500  24.2500 Du        
   1221 ****       -27.7500   2.2500  24.5000 Du        
   1222 ****       -27.7500   2.2500  24.7500 Du        
   1223 ****       -27.7500   2.2500  25.0000 Du        
   1224 ****       -27.7500   2.2500  25.2500 Du        
   1225 ****       -27.7500   2.5000  24.5000 Du        
   1226 ****       -27.5000  -9.2500  34.7500 Du        
   1227 ****       -27.5000  -9.0000  34.2500 Du        
   1228 ****       -27.5000  -9.0000  34.5000 Du        
   1229 ****       -27.5000  -9.0000  34.7500 Du        
   1230 ****       -27.5000  -8.7500  34.0000 Du        
   1231 ****       -27.5000  -8.7500  34.2500 Du        
   1232 ****       -27.5000  -8.7500  34.5000 Du        
   1233 ****       -27.5000  -8.7500  34.7500 Du        
   1234 ****       -27.5000  -8.5000  33.7500 Du        
   1235 ****       -27.5000  -8.5000  34.0000 Du        
   1236 ****       -27.5000  -8.5000  34.2500 Du        
   1237 ****       -27.5000  -8.5000  34.5000 Du        
   1238 ****       -27.5000  -8.5000  34.7500 Du        
   1239 ****       -27.5000  -8.2500  33.5000 Du        
   1240 ****       -27.5000  -8.2500  33.7500 Du        
   1241 ****       -27.5000  -8.2500  34.0000 Du        
   1242 ****       -27.5000  -8.2500  34.2500 Du        
   1243 ****       -27.5000  -8.2500  34.5000 Du        
   1244 ****       -27.5000  -8.2500  34.7500 Du        
   1245 ****       -27.5000  -8.2500  35.0000 Du        
   1246 ****       -27.5000  -8.0000  33.5000 Du        
   1247 ****       -27.5000  -8.0000  33.7500 Du        
   1248 ****       -27.5000  -8.0000  34.0000 Du        
   1249 ****       -27.5000  -8.0000  34.2500 Du        
   1250 ****       -27.5000  -8.0000  34.5000 Du        
   1251 ****       -27.5000  -8.0000  34.7500 Du        
   1252 ****       -27.5000  -8.0000  35.0000 Du        
   1253 ****       -27.5000  -7.7500  33.5000 Du        
   1254 ****       -27.5000  -7.7500  33.7500 Du        
   1255 ****       -27.5000  -7.7500  34.0000 Du        
   1256 ****       -27.5000  -7.7500  34.2500 Du        
   1257 ****       -27.5000  -7.7500  34.5000 Du        
   1258 ****       -27.5000  -7.7500  34.7500 Du        
   1259 ****       -27.5000  -7.7500  35.0000 Du        
   1260 ****       -27.5000  -7.7500  35.2500 Du        
   1261 ****       -27.5000  -7.5000  33.7500 Du        
   1262 ****       -27.5000  -7.5000  34.0000 Du        
   1263 ****       -27.5000  -7.5000  34.2500 Du        
   1264 ****       -27.5000  -7.5000  34.5000 Du        
   1265 ****       -27.5000  -7.5000  34.7500 Du        
   1266 ****       -27.5000  -7.5000  35.0000 Du        
   1267 ****       -27.5000  -7.5000  35.2500 Du        
   1268 ****       -27.5000  -7.2500  33.7500 Du        
   1269 ****       -27.5000  -7.2500  34.0000 Du        
   1270 ****       -27.5000  -7.2500  34.2500 Du        
   1271 ****       -27.5000  -7.2500  34.5000 Du        
   1272 ****       -27.5000  -7.2500  34.7500 Du        
   1273 ****       -27.5000  -7.2500  35.0000 Du        
   1274 ****       -27.5000  -7.2500  35.2500 Du        
   1275 ****       -27.5000  -7.0000  34.0000 Du        
   1276 ****       -27.5000  -7.0000  34.2500 Du        
   1277 ****       -27.5000  -7.0000  34.5000 Du        
   1278 ****       -27.5000  -7.0000  34.7500 Du        
   1279 ****       -27.5000  -7.0000  35.0000 Du        
   1280 ****       -27.5000  -7.0000  35.2500 Du        
   1281 ****       -27.5000  -6.7500  34.5000 Du        
   1282 ****       -27.5000  -6.7500  34.7500 Du        
   1283 ****       -27.5000  -6.7500  35.0000 Du        
   1284 ****       -27.5000  -6.7500  35.2500 Du        
   1285 ****       -27.5000  -6.5000  34.7500 Du        
   1286 ****       -27.5000  -6.5000  35.0000 Du        
   1287 ****       -27.5000  -6.5000  35.2500 Du        
   1288 ****       -27.5000  -6.2500  35.2500 Du        
   1289 ****       -27.5000  -0.5000  24.0000 Du        
   1290 ****       -27.5000  -0.2500  23.5000 Du        
   1291 ****       -27.5000  -0.2500  23.7500 Du        
   1292 ****       -27.5000  -0.2500  24.0000 Du        
   1293 ****       -27.5000  -0.2500  24.2500 Du        
   1294 ****       -27.5000  -0.2500  24.5000 Du        
   1295 ****       -27.5000  -0.2500  24.7500 Du        
   1296 ****       -27.5000   0.0000  23.5000 Du        
   1297 ****       -27.5000   0.0000  23.7500 Du        
   1298 ****       -27.5000   0.0000  24.0000 Du        
   1299 ****       -27.5000   0.0000  24.2500 Du        
   1300 ****       -27.5000   0.0000  24.5000 Du        
   1301 ****       -27.5000   0.0000  24.7500 Du        
   1302 ****       -27.5000   0.0000  25.0000 Du        
   1303 ****       -27.5000   0.0000  25.2500 Du        
   1304 ****       -27.5000   0.2500  23.2500 Du        
   1305 ****       -27.5000   0.2500  23.5000 Du        
   1306 ****       -27.5000   0.2500  23.7500 Du        
   1307 ****       -27.5000   0.2500  24.0000 Du        
   1308 ****       -27.5000   0.2500  24.2500 Du        
   1309 ****       -27.5000   0.2500  24.5000 Du        
   1310 ****       -27.5000   0.2500  24.7500 Du        
   1311 ****       -27.5000   0.2500  25.0000 Du        
   1312 ****       -27.5000   0.2500  25.2500 Du        
   1313 ****       -27.5000   0.5000  23.2500 Du        
   1314 ****       -27.5000   0.5000  23.5000 Du        
   1315 ****       -27.5000   0.5000  23.7500 Du        
   1316 ****       -27.5000   0.5000  24.0000 Du        
   1317 ****       -27.5000   0.5000  24.2500 Du        
   1318 ****       -27.5000   0.5000  24.5000 Du        
   1319 ****       -27.5000   0.5000  24.7500 Du        
   1320 ****       -27.5000   0.5000  25.0000 Du        
   1321 ****       -27.5000   0.5000  25.2500 Du        
   1322 ****       -27.5000   0.7500  23.2500 Du        
   1323 ****       -27.5000   0.7500  23.5000 Du        
   1324 ****       -27.5000   0.7500  23.7500 Du        
   1325 ****       -27.5000   0.7500  24.0000 Du        
   1326 ****       -27.5000   0.7500  24.2500 Du        
   1327 ****       -27.5000   0.7500  24.5000 Du        
   1328 ****       -27.5000   0.7500  24.7500 Du        
   1329 ****       -27.5000   0.7500  25.0000 Du        
   1330 ****       -27.5000   0.7500  25.2500 Du        
   1331 ****       -27.5000   0.7500  25.5000 Du        
   1332 ****       -27.5000   1.0000  23.0000 Du        
   1333 ****       -27.5000   1.0000  23.2500 Du        
   1334 ****       -27.5000   1.0000  23.5000 Du        
   1335 ****       -27.5000   1.0000  23.7500 Du        
   1336 ****       -27.5000   1.0000  24.0000 Du        
   1337 ****       -27.5000   1.0000  24.2500 Du        
   1338 ****       -27.5000   1.0000  24.5000 Du        
   1339 ****       -27.5000   1.0000  24.7500 Du        
   1340 ****       -27.5000   1.0000  25.0000 Du        
   1341 ****       -27.5000   1.0000  25.2500 Du        
   1342 ****       -27.5000   1.0000  25.5000 Du        
   1343 ****       -27.5000   1.2500  23.0000 Du        
   1344 ****       -27.5000   1.2500  23.2500 Du        
   1345 ****       -27.5000   1.2500  23.5000 Du        
   1346 ****       -27.5000   1.2500  23.7500 Du        
   1347 ****       -27.5000   1.2500  24.0000 Du        
   1348 ****       -27.5000   1.2500  24.2500 Du        
   1349 ****       -27.5000   1.2500  24.5000 Du        
   1350 ****       -27.5000   1.2500  24.7500 Du        
   1351 ****       -27.5000   1.2500  25.0000 Du        
   1352 ****       -27.5000   1.2500  25.2500 Du        
   1353 ****       -27.5000   1.2500  25.5000 Du        
   1354 ****       -27.5000   1.2500  31.2500 Du        
   1355 ****       -27.5000   1.5000  23.0000 Du        
   1356 ****       -27.5000   1.5000  23.2500 Du        
   1357 ****       -27.5000   1.5000  23.5000 Du        
   1358 ****       -27.5000   1.5000  23.7500 Du        
   1359 ****       -27.5000   1.5000  24.0000 Du        
   1360 ****       -27.5000   1.5000  24.2500 Du        
   1361 ****       -27.5000   1.5000  24.5000 Du        
   1362 ****       -27.5000   1.5000  24.7500 Du        
   1363 ****       -27.5000   1.5000  25.0000 Du        
   1364 ****       -27.5000   1.5000  25.2500 Du        
   1365 ****       -27.5000   1.7500  23.0000 Du        
   1366 ****       -27.5000   1.7500  23.2500 Du        
   1367 ****       -27.5000   1.7500  23.5000 Du        
   1368 ****       -27.5000   1.7500  23.7500 Du        
   1369 ****       -27.5000   1.7500  24.0000 Du        
   1370 ****       -27.5000   1.7500  24.2500 Du        
   1371 ****       -27.5000   1.7500  24.5000 Du        
   1372 ****       -27.5000   1.7500  24.7500 Du        
   1373 ****       -27.5000   1.7500  25.0000 Du        
   1374 ****       -27.5000   1.7500  25.2500 Du        
   1375 ****       -27.5000   2.0000  23.2500 Du        
   1376 ****       -27.5000   2.0000  23.5000 Du        
   1377 ****       -27.5000   2.0000  23.7500 Du        
   1378 ****       -27.5000   2.0000  24.0000 Du        
   1379 ****       -27.5000   2.0000  24.2500 Du        
   1380 ****       -27.5000   2.0000  24.5000 Du        
   1381 ****       -27.5000   2.0000  24.7500 Du        
   1382 ****       -27.5000   2.0000  25.0000 Du        
   1383 ****       -27.5000   2.0000  25.2500 Du        
   1384 ****       -27.5000   2.2500  23.5000 Du        
   1385 ****       -27.5000   2.2500  23.7500 Du        
   1386 ****       -27.5000   2.2500  24.0000 Du        
   1387 ****       -27.5000   2.2500  24.2500 Du        
   1388 ****       -27.5000   2.2500  24.5000 Du        
   1389 ****       -27.5000   2.2500  24.7500 Du        
   1390 ****       -27.5000   2.2500  25.0000 Du        
   1391 ****       -27.2500  -9.2500  34.7500 Du        
   1392 ****       -27.2500  -9.2500  35.0000 Du        
   1393 ****       -27.2500  -9.0000  34.2500 Du        
   1394 ****       -27.2500  -9.0000  34.5000 Du        
   1395 ****       -27.2500  -9.0000  34.7500 Du        
   1396 ****       -27.2500  -9.0000  35.0000 Du        
   1397 ****       -27.2500  -8.7500  34.0000 Du        
   1398 ****       -27.2500  -8.7500  34.2500 Du        
   1399 ****       -27.2500  -8.7500  34.5000 Du        
   1400 ****       -27.2500  -8.7500  34.7500 Du        
   1401 ****       -27.2500  -8.7500  35.0000 Du        
   1402 ****       -27.2500  -8.7500  35.2500 Du        
   1403 ****       -27.2500  -8.5000  34.0000 Du        
   1404 ****       -27.2500  -8.5000  34.2500 Du        
   1405 ****       -27.2500  -8.5000  34.5000 Du        
   1406 ****       -27.2500  -8.5000  34.7500 Du        
   1407 ****       -27.2500  -8.5000  35.0000 Du        
   1408 ****       -27.2500  -8.2500  33.7500 Du        
   1409 ****       -27.2500  -8.2500  34.0000 Du        
   1410 ****       -27.2500  -8.2500  34.2500 Du        
   1411 ****       -27.2500  -8.2500  34.5000 Du        
   1412 ****       -27.2500  -8.2500  34.7500 Du        
   1413 ****       -27.2500  -8.2500  35.0000 Du        
   1414 ****       -27.2500  -8.2500  35.2500 Du        
   1415 ****       -27.2500  -8.0000  33.7500 Du        
   1416 ****       -27.2500  -8.0000  34.0000 Du        
   1417 ****       -27.2500  -8.0000  34.2500 Du        
   1418 ****       -27.2500  -8.0000  34.5000 Du        
   1419 ****       -27.2500  -8.0000  34.7500 Du        
   1420 ****       -27.2500  -8.0000  35.0000 Du        
   1421 ****       -27.2500  -8.0000  35.2500 Du        
   1422 ****       -27.2500  -7.7500  33.7500 Du        
   1423 ****       -27.2500  -7.7500  34.0000 Du        
   1424 ****       -27.2500  -7.7500  34.2500 Du        
   1425 ****       -27.2500  -7.7500  34.5000 Du        
   1426 ****       -27.2500  -7.7500  34.7500 Du        
   1427 ****       -27.2500  -7.7500  35.0000 Du        
   1428 ****       -27.2500  -7.7500  35.2500 Du        
   1429 ****       -27.2500  -7.5000  33.7500 Du        
   1430 ****       -27.2500  -7.5000  34.0000 Du        
   1431 ****       -27.2500  -7.5000  34.2500 Du        
   1432 ****       -27.2500  -7.5000  34.5000 Du        
   1433 ****       -27.2500  -7.5000  34.7500 Du        
   1434 ****       -27.2500  -7.5000  35.0000 Du        
   1435 ****       -27.2500  -7.5000  35.2500 Du        
   1436 ****       -27.2500  -7.2500  34.0000 Du        
   1437 ****       -27.2500  -7.2500  34.2500 Du        
   1438 ****       -27.2500  -7.2500  34.5000 Du        
   1439 ****       -27.2500  -7.2500  34.7500 Du        
   1440 ****       -27.2500  -7.2500  35.0000 Du        
   1441 ****       -27.2500  -7.2500  35.2500 Du        
   1442 ****       -27.2500  -7.2500  35.5000 Du        
   1443 ****       -27.2500  -7.0000  34.0000 Du        
   1444 ****       -27.2500  -7.0000  34.2500 Du        
   1445 ****       -27.2500  -7.0000  34.5000 Du        
   1446 ****       -27.2500  -7.0000  34.7500 Du        
   1447 ****       -27.2500  -7.0000  35.0000 Du        
   1448 ****       -27.2500  -7.0000  35.2500 Du        
   1449 ****       -27.2500  -7.0000  35.5000 Du        
   1450 ****       -27.2500  -6.7500  34.2500 Du        
   1451 ****       -27.2500  -6.7500  34.5000 Du        
   1452 ****       -27.2500  -6.7500  34.7500 Du        
   1453 ****       -27.2500  -6.7500  35.0000 Du        
   1454 ****       -27.2500  -6.7500  35.2500 Du        
   1455 ****       -27.2500  -6.7500  35.5000 Du        
   1456 ****       -27.2500  -6.7500  35.7500 Du        
   1457 ****       -27.2500  -6.5000  34.7500 Du        
   1458 ****       -27.2500  -6.5000  35.0000 Du        
   1459 ****       -27.2500  -6.5000  35.2500 Du        
   1460 ****       -27.2500  -6.5000  35.5000 Du        
   1461 ****       -27.2500  -6.5000  35.7500 Du        
   1462 ****       -27.2500  -6.2500  35.2500 Du        
   1463 ****       -27.2500  -6.2500  35.5000 Du        
   1464 ****       -27.2500  -6.2500  35.7500 Du        
   1465 ****       -27.2500  -0.2500  23.2500 Du        
   1466 ****       -27.2500  -0.2500  23.5000 Du        
   1467 ****       -27.2500  -0.2500  23.7500 Du        
   1468 ****       -27.2500  -0.2500  24.0000 Du        
   1469 ****       -27.2500  -0.2500  24.2500 Du        
   1470 ****       -27.2500  -0.2500  24.5000 Du        
   1471 ****       -27.2500   0.0000  23.2500 Du        
   1472 ****       -27.2500   0.0000  23.5000 Du        
   1473 ****       -27.2500   0.0000  23.7500 Du        
   1474 ****       -27.2500   0.0000  24.0000 Du        
   1475 ****       -27.2500   0.0000  24.2500 Du        
   1476 ****       -27.2500   0.0000  24.5000 Du        
   1477 ****       -27.2500   0.0000  24.7500 Du        
   1478 ****       -27.2500   0.0000  25.0000 Du        
   1479 ****       -27.2500   0.2500  23.0000 Du        
   1480 ****       -27.2500   0.2500  23.2500 Du        
   1481 ****       -27.2500   0.2500  23.5000 Du        
   1482 ****       -27.2500   0.2500  23.7500 Du        
   1483 ****       -27.2500   0.2500  24.0000 Du        
   1484 ****       -27.2500   0.2500  24.2500 Du        
   1485 ****       -27.2500   0.2500  24.5000 Du        
   1486 ****       -27.2500   0.2500  24.7500 Du        
   1487 ****       -27.2500   0.2500  25.0000 Du        
   1488 ****       -27.2500   0.2500  25.2500 Du        
   1489 ****       -27.2500   0.5000  23.0000 Du        
   1490 ****       -27.2500   0.5000  23.2500 Du        
   1491 ****       -27.2500   0.5000  23.5000 Du        
   1492 ****       -27.2500   0.5000  23.7500 Du        
   1493 ****       -27.2500   0.5000  24.0000 Du        
   1494 ****       -27.2500   0.5000  24.2500 Du        
   1495 ****       -27.2500   0.5000  24.5000 Du        
   1496 ****       -27.2500   0.5000  24.7500 Du        
   1497 ****       -27.2500   0.5000  25.0000 Du        
   1498 ****       -27.2500   0.5000  25.2500 Du        
   1499 ****       -27.2500   0.7500  23.0000 Du        
   1500 ****       -27.2500   0.7500  23.2500 Du        
   1501 ****       -27.2500   0.7500  23.5000 Du        
   1502 ****       -27.2500   0.7500  23.7500 Du        
   1503 ****       -27.2500   0.7500  24.0000 Du        
   1504 ****       -27.2500   0.7500  24.2500 Du        
   1505 ****       -27.2500   0.7500  24.5000 Du        
   1506 ****       -27.2500   0.7500  24.7500 Du        
   1507 ****       -27.2500   0.7500  25.0000 Du        
   1508 ****       -27.2500   0.7500  25.2500 Du        
   1509 ****       -27.2500   1.0000  23.0000 Du        
   1510 ****       -27.2500   1.0000  23.2500 Du        
   1511 ****       -27.2500   1.0000  23.5000 Du        
   1512 ****       -27.2500   1.0000  23.7500 Du        
   1513 ****       -27.2500   1.0000  24.0000 Du        
   1514 ****       -27.2500   1.0000  24.2500 Du        
   1515 ****       -27.2500   1.0000  24.5000 Du        
   1516 ****       -27.2500   1.0000  24.7500 Du        
   1517 ****       -27.2500   1.0000  25.0000 Du        
   1518 ****       -27.2500   1.0000  25.2500 Du        
   1519 ****       -27.2500   1.2500  23.0000 Du        
   1520 ****       -27.2500   1.2500  23.2500 Du        
   1521 ****       -27.2500   1.2500  23.5000 Du        
   1522 ****       -27.2500   1.2500  23.7500 Du        
   1523 ****       -27.2500   1.2500  24.0000 Du        
   1524 ****       -27.2500   1.2500  24.2500 Du        
   1525 ****       -27.2500   1.2500  24.5000 Du        
   1526 ****       -27.2500   1.2500  24.7500 Du        
   1527 ****       -27.2500   1.2500  25.0000 Du        
   1528 ****       -27.2500   1.2500  25.2500 Du        
   1529 ****       -27.2500   1.2500  31.2500 Du        
   1530 ****       -27.2500   1.2500  31.5000 Du        
   1531 ****       -27.2500   1.5000  23.0000 Du        
   1532 ****       -27.2500   1.5000  23.2500 Du        
   1533 ****       -27.2500   1.5000  23.5000 Du        
   1534 ****       -27.2500   1.5000  23.7500 Du        
   1535 ****       -27.2500   1.5000  24.0000 Du        
   1536 ****       -27.2500   1.5000  24.2500 Du        
   1537 ****       -27.2500   1.5000  24.5000 Du        
   1538 ****       -27.2500   1.5000  24.7500 Du        
   1539 ****       -27.2500   1.5000  25.0000 Du        
   1540 ****       -27.2500   1.5000  25.2500 Du        
   1541 ****       -27.2500   1.7500  23.0000 Du        
   1542 ****       -27.2500   1.7500  23.2500 Du        
   1543 ****       -27.2500   1.7500  23.5000 Du        
   1544 ****       -27.2500   1.7500  23.7500 Du        
   1545 ****       -27.2500   1.7500  24.0000 Du        
   1546 ****       -27.2500   1.7500  24.2500 Du        
   1547 ****       -27.2500   1.7500  24.5000 Du        
   1548 ****       -27.2500   1.7500  24.7500 Du        
   1549 ****       -27.2500   1.7500  25.0000 Du        
   1550 ****       -27.2500   1.7500  25.2500 Du        
   1551 ****       -27.2500   2.0000  23.2500 Du        
   1552 ****       -27.2500   2.0000  23.5000 Du        
   1553 ****       -27.2500   2.0000  23.7500 Du        
   1554 ****       -27.2500   2.0000  24.0000 Du        
   1555 ****       -27.2500   2.0000  24.2500 Du        
   1556 ****       -27.2500   2.0000  24.5000 Du        
   1557 ****       -27.2500   2.0000  24.7500 Du        
   1558 ****       -27.2500   2.0000  25.0000 Du        
   1559 ****       -27.2500   2.0000  25.2500 Du        
   1560 ****       -27.2500   2.2500  23.5000 Du        
   1561 ****       -27.2500   2.2500  23.7500 Du        
   1562 ****       -27.2500   2.2500  24.0000 Du        
   1563 ****       -27.2500   2.2500  24.2500 Du        
   1564 ****       -27.2500   2.2500  24.5000 Du        
   1565 ****       -27.2500   2.2500  24.7500 Du        
   1566 ****       -27.2500   2.2500  25.0000 Du        
   1567 ****       -27.2500   2.5000  24.0000 Du        
   1568 ****       -27.0000  -9.5000  35.0000 Du        
   1569 ****       -27.0000  -9.2500  34.5000 Du        
   1570 ****       -27.0000  -9.2500  34.7500 Du        
   1571 ****       -27.0000  -9.2500  35.0000 Du        
   1572 ****       -27.0000  -9.2500  35.2500 Du        
   1573 ****       -27.0000  -9.0000  34.2500 Du        
   1574 ****       -27.0000  -9.0000  34.5000 Du        
   1575 ****       -27.0000  -9.0000  34.7500 Du        
   1576 ****       -27.0000  -9.0000  35.0000 Du        
   1577 ****       -27.0000  -9.0000  35.2500 Du        
   1578 ****       -27.0000  -8.7500  34.2500 Du        
   1579 ****       -27.0000  -8.7500  34.5000 Du        
   1580 ****       -27.0000  -8.7500  34.7500 Du        
   1581 ****       -27.0000  -8.7500  35.0000 Du        
   1582 ****       -27.0000  -8.7500  35.2500 Du        
   1583 ****       -27.0000  -8.5000  34.0000 Du        
   1584 ****       -27.0000  -8.5000  34.2500 Du        
   1585 ****       -27.0000  -8.5000  34.5000 Du        
   1586 ****       -27.0000  -8.5000  34.7500 Du        
   1587 ****       -27.0000  -8.5000  35.0000 Du        
   1588 ****       -27.0000  -8.2500  34.0000 Du        
   1589 ****       -27.0000  -8.2500  34.2500 Du        
   1590 ****       -27.0000  -8.2500  34.5000 Du        
   1591 ****       -27.0000  -8.2500  34.7500 Du        
   1592 ****       -27.0000  -8.2500  35.0000 Du        
   1593 ****       -27.0000  -8.2500  35.2500 Du        
   1594 ****       -27.0000  -8.0000  34.0000 Du        
   1595 ****       -27.0000  -8.0000  34.2500 Du        
   1596 ****       -27.0000  -8.0000  34.5000 Du        
   1597 ****       -27.0000  -8.0000  34.7500 Du        
   1598 ****       -27.0000  -8.0000  35.0000 Du        
   1599 ****       -27.0000  -8.0000  35.2500 Du        
   1600 ****       -27.0000  -7.7500  34.0000 Du        
   1601 ****       -27.0000  -7.7500  34.2500 Du        
   1602 ****       -27.0000  -7.7500  34.5000 Du        
   1603 ****       -27.0000  -7.7500  34.7500 Du        
   1604 ****       -27.0000  -7.7500  35.0000 Du        
   1605 ****       -27.0000  -7.7500  35.2500 Du        
   1606 ****       -27.0000  -7.5000  34.0000 Du        
   1607 ****       -27.0000  -7.5000  34.2500 Du        
   1608 ****       -27.0000  -7.5000  34.5000 Du        
   1609 ****       -27.0000  -7.5000  34.7500 Du        
   1610 ****       -27.0000  -7.5000  35.0000 Du        
   1611 ****       -27.0000  -7.5000  35.2500 Du        
   1612 ****       -27.0000  -7.5000  35.5000 Du        
   1613 ****       -27.0000  -7.2500  34.0000 Du        
   1614 ****       -27.0000  -7.2500  34.2500 Du        
   1615 ****       -27.0000  -7.2500  34.5000 Du        
   1616 ****       -27.0000  -7.2500  34.7500 Du        
   1617 ****       -27.0000  -7.2500  35.0000 Du        
   1618 ****       -27.0000  -7.2500  35.2500 Du        
   1619 ****       -27.0000  -7.2500  35.5000 Du        
   1620 ****       -27.0000  -7.2500  35.7500 Du        
   1621 ****       -27.0000  -7.0000  34.2500 Du        
   1622 ****       -27.0000  -7.0000  34.5000 Du        
   1623 ****       -27.0000  -7.0000  34.7500 Du        
   1624 ****       -27.0000  -7.0000  35.0000 Du        
   1625 ****       -27.0000  -7.0000  35.2500 Du        
   1626 ****       -27.0000  -7.0000  35.5000 Du        
   1627 ****       -27.0000  -7.0000  35.7500 Du        
   1628 ****       -27.0000  -6.7500  34.2500 Du        
   1629 ****       -27.0000  -6.7500  34.5000 Du        
   1630 ****       -27.0000  -6.7500  34.7500 Du        
   1631 ****       -27.0000  -6.7500  35.0000 Du        
   1632 ****       -27.0000  -6.7500  35.2500 Du        
   1633 ****       -27.0000  -6.7500  35.5000 Du        
   1634 ****       -27.0000  -6.7500  35.7500 Du        
   1635 ****       -27.0000  -6.5000  34.7500 Du        
   1636 ****       -27.0000  -6.5000  35.0000 Du        
   1637 ****       -27.0000  -6.5000  35.2500 Du        
   1638 ****       -27.0000  -6.5000  35.5000 Du        
   1639 ****       -27.0000  -6.5000  35.7500 Du        
   1640 ****       -27.0000  -6.5000  36.0000 Du        
   1641 ****       -27.0000  -6.2500  35.0000 Du        
   1642 ****       -27.0000  -6.2500  35.2500 Du        
   1643 ****       -27.0000  -6.2500  35.5000 Du        
   1644 ****       -27.0000  -6.2500  35.7500 Du        
   1645 ****       -27.0000  -6.2500  36.0000 Du        
   1646 ****       -27.0000  -6.0000  35.7500 Du        
   1647 ****       -27.0000  -6.0000  36.0000 Du        
   1648 ****       -27.0000  -5.7500  36.0000 Du        
   1649 ****       -27.0000  -5.7500  36.2500 Du        
   1650 ****       -27.0000  -0.2500  23.2500 Du        
   1651 ****       -27.0000  -0.2500  23.5000 Du        
   1652 ****       -27.0000  -0.2500  23.7500 Du        
   1653 ****       -27.0000  -0.2500  24.0000 Du        
   1654 ****       -27.0000  -0.2500  24.2500 Du        
   1655 ****       -27.0000   0.0000  23.0000 Du        
   1656 ****       -27.0000   0.0000  23.2500 Du        
   1657 ****       -27.0000   0.0000  23.5000 Du        
   1658 ****       -27.0000   0.0000  23.7500 Du        
   1659 ****       -27.0000   0.0000  24.0000 Du        
   1660 ****       -27.0000   0.0000  24.2500 Du        
   1661 ****       -27.0000   0.0000  24.5000 Du        
   1662 ****       -27.0000   0.0000  24.7500 Du        
   1663 ****       -27.0000   0.2500  23.0000 Du        
   1664 ****       -27.0000   0.2500  23.2500 Du        
   1665 ****       -27.0000   0.2500  23.5000 Du        
   1666 ****       -27.0000   0.2500  23.7500 Du        
   1667 ****       -27.0000   0.2500  24.0000 Du        
   1668 ****       -27.0000   0.2500  24.2500 Du        
   1669 ****       -27.0000   0.2500  24.5000 Du        
   1670 ****       -27.0000   0.2500  24.7500 Du        
   1671 ****       -27.0000   0.2500  25.0000 Du        
   1672 ****       -27.0000   0.5000  23.0000 Du        
   1673 ****       -27.0000   0.5000  23.2500 Du        
   1674 ****       -27.0000   0.5000  23.5000 Du        
   1675 ****       -27.0000   0.5000  23.7500 Du        
   1676 ****       -27.0000   0.5000  24.0000 Du        
   1677 ****       -27.0000   0.5000  24.2500 Du        
   1678 ****       -27.0000   0.5000  24.5000 Du        
   1679 ****       -27.0000   0.5000  24.7500 Du        
   1680 ****       -27.0000   0.5000  25.0000 Du        
   1681 ****       -27.0000   0.7500  22.7500 Du        
   1682 ****       -27.0000   0.7500  23.0000 Du        
   1683 ****       -27.0000   0.7500  23.2500 Du        
   1684 ****       -27.0000   0.7500  23.5000 Du        
   1685 ****       -27.0000   0.7500  23.7500 Du        
   1686 ****       -27.0000   0.7500  24.0000 Du        
   1687 ****       -27.0000   0.7500  24.2500 Du        
   1688 ****       -27.0000   0.7500  24.5000 Du        
   1689 ****       -27.0000   0.7500  24.7500 Du        
   1690 ****       -27.0000   0.7500  25.0000 Du        
   1691 ****       -27.0000   0.7500  25.2500 Du        
   1692 ****       -27.0000   1.0000  22.7500 Du        
   1693 ****       -27.0000   1.0000  23.0000 Du        
   1694 ****       -27.0000   1.0000  23.2500 Du        
   1695 ****       -27.0000   1.0000  23.5000 Du        
   1696 ****       -27.0000   1.0000  23.7500 Du        
   1697 ****       -27.0000   1.0000  24.0000 Du        
   1698 ****       -27.0000   1.0000  24.2500 Du        
   1699 ****       -27.0000   1.0000  24.5000 Du        
   1700 ****       -27.0000   1.0000  24.7500 Du        
   1701 ****       -27.0000   1.0000  25.0000 Du        
   1702 ****       -27.0000   1.0000  25.2500 Du        
   1703 ****       -27.0000   1.0000  31.5000 Du        
   1704 ****       -27.0000   1.2500  22.7500 Du        
   1705 ****       -27.0000   1.2500  23.0000 Du        
   1706 ****       -27.0000   1.2500  23.2500 Du        
   1707 ****       -27.0000   1.2500  23.5000 Du        
   1708 ****       -27.0000   1.2500  23.7500 Du        
   1709 ****       -27.0000   1.2500  24.0000 Du        
   1710 ****       -27.0000   1.2500  24.2500 Du        
   1711 ****       -27.0000   1.2500  24.5000 Du        
   1712 ****       -27.0000   1.2500  24.7500 Du        
   1713 ****       -27.0000   1.2500  25.0000 Du        
   1714 ****       -27.0000   1.2500  25.2500 Du        
   1715 ****       -27.0000   1.2500  31.2500 Du        
   1716 ****       -27.0000   1.2500  31.5000 Du        
   1717 ****       -27.0000   1.2500  31.7500 Du        
   1718 ****       -27.0000   1.5000  23.0000 Du        
   1719 ****       -27.0000   1.5000  23.2500 Du        
   1720 ****       -27.0000   1.5000  23.5000 Du        
   1721 ****       -27.0000   1.5000  23.7500 Du        
   1722 ****       -27.0000   1.5000  24.0000 Du        
   1723 ****       -27.0000   1.5000  24.2500 Du        
   1724 ****       -27.0000   1.5000  24.5000 Du        
   1725 ****       -27.0000   1.5000  24.7500 Du        
   1726 ****       -27.0000   1.5000  25.0000 Du        
   1727 ****       -27.0000   1.5000  25.2500 Du        
   1728 ****       -27.0000   1.5000  31.5000 Du        
   1729 ****       -27.0000   1.7500  23.0000 Du        
   1730 ****       -27.0000   1.7500  23.2500 Du        
   1731 ****       -27.0000   1.7500  23.5000 Du        
   1732 ****       -27.0000   1.7500  23.7500 Du        
   1733 ****       -27.0000   1.7500  24.0000 Du        
   1734 ****       -27.0000   1.7500  24.2500 Du        
   1735 ****       -27.0000   1.7500  24.5000 Du        
   1736 ****       -27.0000   1.7500  24.7500 Du        
   1737 ****       -27.0000   1.7500  25.0000 Du        
   1738 ****       -27.0000   2.0000  23.0000 Du        
   1739 ****       -27.0000   2.0000  23.2500 Du        
   1740 ****       -27.0000   2.0000  23.5000 Du        
   1741 ****       -27.0000   2.0000  23.7500 Du        
   1742 ****       -27.0000   2.0000  24.0000 Du        
   1743 ****       -27.0000   2.0000  24.2500 Du        
   1744 ****       -27.0000   2.0000  24.5000 Du        
   1745 ****       -27.0000   2.0000  24.7500 Du        
   1746 ****       -27.0000   2.0000  25.0000 Du        
   1747 ****       -27.0000   2.2500  23.2500 Du        
   1748 ****       -27.0000   2.2500  23.5000 Du        
   1749 ****       -27.0000   2.2500  23.7500 Du        
   1750 ****       -27.0000   2.2500  24.0000 Du        
   1751 ****       -27.0000   2.2500  24.2500 Du        
   1752 ****       -27.0000   2.2500  24.5000 Du        
   1753 ****       -27.0000   2.2500  24.7500 Du        
   1754 ****       -27.0000   2.2500  25.0000 Du        
   1755 ****       -27.0000   2.5000  24.0000 Du        
   1756 ****       -26.7500  -9.5000  35.0000 Du        
   1757 ****       -26.7500  -9.5000  35.2500 Du        
   1758 ****       -26.7500  -9.2500  34.7500 Du        
   1759 ****       -26.7500  -9.2500  35.0000 Du        
   1760 ****       -26.7500  -9.2500  35.2500 Du        
   1761 ****       -26.7500  -9.0000  34.5000 Du        
   1762 ****       -26.7500  -9.0000  34.7500 Du        
   1763 ****       -26.7500  -9.0000  35.0000 Du        
   1764 ****       -26.7500  -9.0000  35.2500 Du        
   1765 ****       -26.7500  -8.7500  34.2500 Du        
   1766 ****       -26.7500  -8.7500  34.5000 Du        
   1767 ****       -26.7500  -8.7500  34.7500 Du        
   1768 ****       -26.7500  -8.7500  35.0000 Du        
   1769 ****       -26.7500  -8.7500  35.2500 Du        
   1770 ****       -26.7500  -8.5000  34.2500 Du        
   1771 ****       -26.7500  -8.5000  34.5000 Du        
   1772 ****       -26.7500  -8.5000  34.7500 Du        
   1773 ****       -26.7500  -8.5000  35.0000 Du        
   1774 ****       -26.7500  -8.5000  35.2500 Du        
   1775 ****       -26.7500  -8.2500  34.2500 Du        
   1776 ****       -26.7500  -8.2500  34.5000 Du        
   1777 ****       -26.7500  -8.2500  34.7500 Du        
   1778 ****       -26.7500  -8.2500  35.0000 Du        
   1779 ****       -26.7500  -8.2500  35.2500 Du        
   1780 ****       -26.7500  -8.0000  34.2500 Du        
   1781 ****       -26.7500  -8.0000  34.5000 Du        
   1782 ****       -26.7500  -8.0000  34.7500 Du        
   1783 ****       -26.7500  -8.0000  35.0000 Du        
   1784 ****       -26.7500  -8.0000  35.2500 Du        
   1785 ****       -26.7500  -7.7500  34.2500 Du        
   1786 ****       -26.7500  -7.7500  34.5000 Du        
   1787 ****       -26.7500  -7.7500  34.7500 Du        
   1788 ****       -26.7500  -7.7500  35.0000 Du        
   1789 ****       -26.7500  -7.7500  35.2500 Du        
   1790 ****       -26.7500  -7.7500  35.5000 Du        
   1791 ****       -26.7500  -7.5000  34.2500 Du        
   1792 ****       -26.7500  -7.5000  34.5000 Du        
   1793 ****       -26.7500  -7.5000  34.7500 Du        
   1794 ****       -26.7500  -7.5000  35.0000 Du        
   1795 ****       -26.7500  -7.5000  35.2500 Du        
   1796 ****       -26.7500  -7.5000  35.5000 Du        
   1797 ****       -26.7500  -7.5000  35.7500 Du        
   1798 ****       -26.7500  -7.2500  34.2500 Du        
   1799 ****       -26.7500  -7.2500  34.5000 Du        
   1800 ****       -26.7500  -7.2500  34.7500 Du        
   1801 ****       -26.7500  -7.2500  35.0000 Du        
   1802 ****       -26.7500  -7.2500  35.2500 Du        
   1803 ****       -26.7500  -7.2500  35.5000 Du        
   1804 ****       -26.7500  -7.2500  35.7500 Du        
   1805 ****       -26.7500  -7.2500  36.0000 Du        
   1806 ****       -26.7500  -7.0000  34.2500 Du        
   1807 ****       -26.7500  -7.0000  34.5000 Du        
   1808 ****       -26.7500  -7.0000  34.7500 Du        
   1809 ****       -26.7500  -7.0000  35.0000 Du        
   1810 ****       -26.7500  -7.0000  35.2500 Du        
   1811 ****       -26.7500  -7.0000  35.5000 Du        
   1812 ****       -26.7500  -7.0000  35.7500 Du        
   1813 ****       -26.7500  -7.0000  36.0000 Du        
   1814 ****       -26.7500  -6.7500  34.5000 Du        
   1815 ****       -26.7500  -6.7500  34.7500 Du        
   1816 ****       -26.7500  -6.7500  35.0000 Du        
   1817 ****       -26.7500  -6.7500  35.2500 Du        
   1818 ****       -26.7500  -6.7500  35.5000 Du        
   1819 ****       -26.7500  -6.7500  35.7500 Du        
   1820 ****       -26.7500  -6.7500  36.0000 Du        
   1821 ****       -26.7500  -6.5000  34.7500 Du        
   1822 ****       -26.7500  -6.5000  35.0000 Du        
   1823 ****       -26.7500  -6.5000  35.2500 Du        
   1824 ****       -26.7500  -6.5000  35.5000 Du        
   1825 ****       -26.7500  -6.5000  35.7500 Du        
   1826 ****       -26.7500  -6.5000  36.0000 Du        
   1827 ****       -26.7500  -6.5000  36.2500 Du        
   1828 ****       -26.7500  -6.2500  35.0000 Du        
   1829 ****       -26.7500  -6.2500  35.2500 Du        
   1830 ****       -26.7500  -6.2500  35.5000 Du        
   1831 ****       -26.7500  -6.2500  35.7500 Du        
   1832 ****       -26.7500  -6.2500  36.0000 Du        
   1833 ****       -26.7500  -6.2500  36.2500 Du        
   1834 ****       -26.7500  -6.0000  35.5000 Du        
   1835 ****       -26.7500  -6.0000  35.7500 Du        
   1836 ****       -26.7500  -6.0000  36.0000 Du        
   1837 ****       -26.7500  -6.0000  36.2500 Du        
   1838 ****       -26.7500  -5.7500  35.7500 Du        
   1839 ****       -26.7500  -5.7500  36.0000 Du        
   1840 ****       -26.7500  -5.7500  36.2500 Du        
   1841 ****       -26.7500  -0.2500  23.7500 Du        
   1842 ****       -26.7500   0.0000  23.2500 Du        
   1843 ****       -26.7500   0.0000  23.5000 Du        
   1844 ****       -26.7500   0.0000  23.7500 Du        
   1845 ****       -26.7500   0.0000  24.0000 Du        
   1846 ****       -26.7500   0.0000  24.2500 Du        
   1847 ****       -26.7500   0.0000  24.5000 Du        
   1848 ****       -26.7500   0.2500  23.0000 Du        
   1849 ****       -26.7500   0.2500  23.2500 Du        
   1850 ****       -26.7500   0.2500  23.5000 Du        
   1851 ****       -26.7500   0.2500  23.7500 Du        
   1852 ****       -26.7500   0.2500  24.0000 Du        
   1853 ****       -26.7500   0.2500  24.2500 Du        
   1854 ****       -26.7500   0.2500  24.5000 Du        
   1855 ****       -26.7500   0.2500  24.7500 Du        
   1856 ****       -26.7500   0.5000  23.0000 Du        
   1857 ****       -26.7500   0.5000  23.2500 Du        
   1858 ****       -26.7500   0.5000  23.5000 Du        
   1859 ****       -26.7500   0.5000  23.7500 Du        
   1860 ****       -26.7500   0.5000  24.0000 Du        
   1861 ****       -26.7500   0.5000  24.2500 Du        
   1862 ****       -26.7500   0.5000  24.5000 Du        
   1863 ****       -26.7500   0.5000  24.7500 Du        
   1864 ****       -26.7500   0.5000  25.0000 Du        
   1865 ****       -26.7500   0.7500  22.7500 Du        
   1866 ****       -26.7500   0.7500  23.0000 Du        
   1867 ****       -26.7500   0.7500  23.2500 Du        
   1868 ****       -26.7500   0.7500  23.5000 Du        
   1869 ****       -26.7500   0.7500  23.7500 Du        
   1870 ****       -26.7500   0.7500  24.0000 Du        
   1871 ****       -26.7500   0.7500  24.2500 Du        
   1872 ****       -26.7500   0.7500  24.5000 Du        
   1873 ****       -26.7500   0.7500  24.7500 Du        
   1874 ****       -26.7500   0.7500  25.0000 Du        
   1875 ****       -26.7500   1.0000  22.7500 Du        
   1876 ****       -26.7500   1.0000  23.0000 Du        
   1877 ****       -26.7500   1.0000  23.2500 Du        
   1878 ****       -26.7500   1.0000  23.5000 Du        
   1879 ****       -26.7500   1.0000  23.7500 Du        
   1880 ****       -26.7500   1.0000  24.0000 Du        
   1881 ****       -26.7500   1.0000  24.2500 Du        
   1882 ****       -26.7500   1.0000  24.5000 Du        
   1883 ****       -26.7500   1.0000  24.7500 Du        
   1884 ****       -26.7500   1.0000  25.0000 Du        
   1885 ****       -26.7500   1.0000  31.5000 Du        
   1886 ****       -26.7500   1.0000  31.7500 Du        
   1887 ****       -26.7500   1.2500  22.7500 Du        
   1888 ****       -26.7500   1.2500  23.0000 Du        
   1889 ****       -26.7500   1.2500  23.2500 Du        
   1890 ****       -26.7500   1.2500  23.5000 Du        
   1891 ****       -26.7500   1.2500  23.7500 Du        
   1892 ****       -26.7500   1.2500  24.0000 Du        
   1893 ****       -26.7500   1.2500  24.2500 Du        
   1894 ****       -26.7500   1.2500  24.5000 Du        
   1895 ****       -26.7500   1.2500  24.7500 Du        
   1896 ****       -26.7500   1.2500  25.0000 Du        
   1897 ****       -26.7500   1.2500  31.5000 Du        
   1898 ****       -26.7500   1.2500  31.7500 Du        
   1899 ****       -26.7500   1.2500  32.0000 Du        
   1900 ****       -26.7500   1.5000  22.7500 Du        
   1901 ****       -26.7500   1.5000  23.0000 Du        
   1902 ****       -26.7500   1.5000  23.2500 Du        
   1903 ****       -26.7500   1.5000  23.5000 Du        
   1904 ****       -26.7500   1.5000  23.7500 Du        
   1905 ****       -26.7500   1.5000  24.0000 Du        
   1906 ****       -26.7500   1.5000  24.2500 Du        
   1907 ****       -26.7500   1.5000  24.5000 Du        
   1908 ****       -26.7500   1.5000  24.7500 Du        
   1909 ****       -26.7500   1.5000  25.0000 Du        
   1910 ****       -26.7500   1.5000  31.5000 Du        
   1911 ****       -26.7500   1.5000  31.7500 Du        
   1912 ****       -26.7500   1.7500  23.0000 Du        
   1913 ****       -26.7500   1.7500  23.2500 Du        
   1914 ****       -26.7500   1.7500  23.5000 Du        
   1915 ****       -26.7500   1.7500  23.7500 Du        
   1916 ****       -26.7500   1.7500  24.0000 Du        
   1917 ****       -26.7500   1.7500  24.2500 Du        
   1918 ****       -26.7500   1.7500  24.5000 Du        
   1919 ****       -26.7500   1.7500  24.7500 Du        
   1920 ****       -26.7500   1.7500  25.0000 Du        
   1921 ****       -26.7500   2.0000  23.0000 Du        
   1922 ****       -26.7500   2.0000  23.2500 Du        
   1923 ****       -26.7500   2.0000  23.5000 Du        
   1924 ****       -26.7500   2.0000  23.7500 Du        
   1925 ****       -26.7500   2.0000  24.0000 Du        
   1926 ****       -26.7500   2.0000  24.2500 Du        
   1927 ****       -26.7500   2.0000  24.5000 Du        
   1928 ****       -26.7500   2.0000  24.7500 Du        
   1929 ****       -26.7500   2.2500  23.2500 Du        
   1930 ****       -26.7500   2.2500  23.5000 Du        
   1931 ****       -26.7500   2.2500  23.7500 Du        
   1932 ****       -26.7500   2.2500  24.0000 Du        
   1933 ****       -26.7500   2.2500  24.2500 Du        
   1934 ****       -26.7500   2.2500  24.5000 Du        
   1935 ****       -26.7500   2.2500  24.7500 Du        
   1936 ****       -26.7500   2.5000  24.0000 Du        
   1937 ****       -26.5000  -9.5000  35.0000 Du        
   1938 ****       -26.5000  -9.5000  35.2500 Du        
   1939 ****       -26.5000  -9.2500  34.7500 Du        
   1940 ****       -26.5000  -9.2500  35.0000 Du        
   1941 ****       -26.5000  -9.2500  35.2500 Du        
   1942 ****       -26.5000  -9.0000  34.5000 Du        
   1943 ****       -26.5000  -9.0000  34.7500 Du        
   1944 ****       -26.5000  -9.0000  35.0000 Du        
   1945 ****       -26.5000  -9.0000  35.2500 Du        
   1946 ****       -26.5000  -8.7500  34.5000 Du        
   1947 ****       -26.5000  -8.7500  34.7500 Du        
   1948 ****       -26.5000  -8.7500  35.0000 Du        
   1949 ****       -26.5000  -8.7500  35.2500 Du        
   1950 ****       -26.5000  -8.5000  34.7500 Du        
   1951 ****       -26.5000  -8.5000  35.0000 Du        
   1952 ****       -26.5000  -8.5000  35.2500 Du        
   1953 ****       -26.5000  -8.2500  34.7500 Du        
   1954 ****       -26.5000  -8.2500  35.0000 Du        
   1955 ****       -26.5000  -8.2500  35.2500 Du        
   1956 ****       -26.5000  -8.0000  34.7500 Du        
   1957 ****       -26.5000  -8.0000  35.0000 Du        
   1958 ****       -26.5000  -8.0000  35.2500 Du        
   1959 ****       -26.5000  -8.0000  35.5000 Du        
   1960 ****       -26.5000  -7.7500  34.7500 Du        
   1961 ****       -26.5000  -7.7500  35.0000 Du        
   1962 ****       -26.5000  -7.7500  35.2500 Du        
   1963 ****       -26.5000  -7.7500  35.5000 Du        
   1964 ****       -26.5000  -7.5000  34.5000 Du        
   1965 ****       -26.5000  -7.5000  34.7500 Du        
   1966 ****       -26.5000  -7.5000  35.0000 Du        
   1967 ****       -26.5000  -7.5000  35.2500 Du        
   1968 ****       -26.5000  -7.5000  35.5000 Du        
   1969 ****       -26.5000  -7.5000  35.7500 Du        
   1970 ****       -26.5000  -7.2500  34.5000 Du        
   1971 ****       -26.5000  -7.2500  34.7500 Du        
   1972 ****       -26.5000  -7.2500  35.0000 Du        
   1973 ****       -26.5000  -7.2500  35.2500 Du        
   1974 ****       -26.5000  -7.2500  35.5000 Du        
   1975 ****       -26.5000  -7.2500  35.7500 Du        
   1976 ****       -26.5000  -7.2500  36.0000 Du        
   1977 ****       -26.5000  -7.0000  34.5000 Du        
   1978 ****       -26.5000  -7.0000  34.7500 Du        
   1979 ****       -26.5000  -7.0000  35.0000 Du        
   1980 ****       -26.5000  -7.0000  35.2500 Du        
   1981 ****       -26.5000  -7.0000  35.5000 Du        
   1982 ****       -26.5000  -7.0000  35.7500 Du        
   1983 ****       -26.5000  -7.0000  36.0000 Du        
   1984 ****       -26.5000  -6.7500  34.5000 Du        
   1985 ****       -26.5000  -6.7500  34.7500 Du        
   1986 ****       -26.5000  -6.7500  35.0000 Du        
   1987 ****       -26.5000  -6.7500  35.2500 Du        
   1988 ****       -26.5000  -6.7500  35.5000 Du        
   1989 ****       -26.5000  -6.7500  35.7500 Du        
   1990 ****       -26.5000  -6.7500  36.0000 Du        
   1991 ****       -26.5000  -6.5000  34.7500 Du        
   1992 ****       -26.5000  -6.5000  35.0000 Du        
   1993 ****       -26.5000  -6.5000  35.2500 Du        
   1994 ****       -26.5000  -6.5000  35.5000 Du        
   1995 ****       -26.5000  -6.5000  35.7500 Du        
   1996 ****       -26.5000  -6.5000  36.0000 Du        
   1997 ****       -26.5000  -6.5000  36.2500 Du        
   1998 ****       -26.5000  -6.2500  35.0000 Du        
   1999 ****       -26.5000  -6.2500  35.2500 Du        
   2000 ****       -26.5000  -6.2500  35.5000 Du        
   2001 ****       -26.5000  -6.2500  35.7500 Du        
   2002 ****       -26.5000  -6.2500  36.0000 Du        
   2003 ****       -26.5000  -6.2500  36.2500 Du        
   2004 ****       -26.5000  -6.0000  35.2500 Du        
   2005 ****       -26.5000  -6.0000  35.5000 Du        
   2006 ****       -26.5000  -6.0000  35.7500 Du        
   2007 ****       -26.5000  -6.0000  36.0000 Du        
   2008 ****       -26.5000  -6.0000  36.2500 Du        
   2009 ****       -26.5000  -6.0000  36.5000 Du        
   2010 ****       -26.5000  -5.7500  35.7500 Du        
   2011 ****       -26.5000  -5.7500  36.0000 Du        
   2012 ****       -26.5000  -5.7500  36.2500 Du        
   2013 ****       -26.5000  -5.5000  36.0000 Du        
   2014 ****       -26.5000  -5.5000  36.2500 Du        
   2015 ****       -26.5000  -5.2500  36.2500 Du        
   2016 ****       -26.5000  -5.0000  36.2500 Du        
   2017 ****       -26.5000   0.0000  23.7500 Du        
   2018 ****       -26.5000   0.0000  24.0000 Du        
   2019 ****       -26.5000   0.0000  24.2500 Du        
   2020 ****       -26.5000   0.2500  23.2500 Du        
   2021 ****       -26.5000   0.2500  23.5000 Du        
   2022 ****       -26.5000   0.2500  23.7500 Du        
   2023 ****       -26.5000   0.2500  24.0000 Du        
   2024 ****       -26.5000   0.2500  24.2500 Du        
   2025 ****       -26.5000   0.2500  24.5000 Du        
   2026 ****       -26.5000   0.2500  24.7500 Du        
   2027 ****       -26.5000   0.5000  23.0000 Du        
   2028 ****       -26.5000   0.5000  23.2500 Du        
   2029 ****       -26.5000   0.5000  23.5000 Du        
   2030 ****       -26.5000   0.5000  23.7500 Du        
   2031 ****       -26.5000   0.5000  24.0000 Du        
   2032 ****       -26.5000   0.5000  24.2500 Du        
   2033 ****       -26.5000   0.5000  24.5000 Du        
   2034 ****       -26.5000   0.5000  24.7500 Du        
   2035 ****       -26.5000   0.7500  22.7500 Du        
   2036 ****       -26.5000   0.7500  23.0000 Du        
   2037 ****       -26.5000   0.7500  23.2500 Du        
   2038 ****       -26.5000   0.7500  23.5000 Du        
   2039 ****       -26.5000   0.7500  23.7500 Du        
   2040 ****       -26.5000   0.7500  24.0000 Du        
   2041 ****       -26.5000   0.7500  24.2500 Du        
   2042 ****       -26.5000   0.7500  24.5000 Du        
   2043 ****       -26.5000   0.7500  24.7500 Du        
   2044 ****       -26.5000   1.0000  22.7500 Du        
   2045 ****       -26.5000   1.0000  23.0000 Du        
   2046 ****       -26.5000   1.0000  23.2500 Du        
   2047 ****       -26.5000   1.0000  23.5000 Du        
   2048 ****       -26.5000   1.0000  23.7500 Du        
   2049 ****       -26.5000   1.0000  24.0000 Du        
   2050 ****       -26.5000   1.0000  24.2500 Du        
   2051 ****       -26.5000   1.0000  24.5000 Du        
   2052 ****       -26.5000   1.0000  24.7500 Du        
   2053 ****       -26.5000   1.0000  31.5000 Du        
   2054 ****       -26.5000   1.0000  31.7500 Du        
   2055 ****       -26.5000   1.0000  32.0000 Du        
   2056 ****       -26.5000   1.2500  22.7500 Du        
   2057 ****       -26.5000   1.2500  23.0000 Du        
   2058 ****       -26.5000   1.2500  23.2500 Du        
   2059 ****       -26.5000   1.2500  23.5000 Du        
   2060 ****       -26.5000   1.2500  23.7500 Du        
   2061 ****       -26.5000   1.2500  24.0000 Du        
   2062 ****       -26.5000   1.2500  24.2500 Du        
   2063 ****       -26.5000   1.2500  24.5000 Du        
   2064 ****       -26.5000   1.2500  24.7500 Du        
   2065 ****       -26.5000   1.2500  31.5000 Du        
   2066 ****       -26.5000   1.2500  31.7500 Du        
   2067 ****       -26.5000   1.2500  32.0000 Du        
   2068 ****       -26.5000   1.5000  22.7500 Du        
   2069 ****       -26.5000   1.5000  23.0000 Du        
   2070 ****       -26.5000   1.5000  23.2500 Du        
   2071 ****       -26.5000   1.5000  23.5000 Du        
   2072 ****       -26.5000   1.5000  23.7500 Du        
   2073 ****       -26.5000   1.5000  24.0000 Du        
   2074 ****       -26.5000   1.5000  24.2500 Du        
   2075 ****       -26.5000   1.5000  24.5000 Du        
   2076 ****       -26.5000   1.5000  31.5000 Du        
   2077 ****       -26.5000   1.5000  31.7500 Du        
   2078 ****       -26.5000   1.5000  32.0000 Du        
   2079 ****       -26.5000   1.7500  22.7500 Du        
   2080 ****       -26.5000   1.7500  23.0000 Du        
   2081 ****       -26.5000   1.7500  23.2500 Du        
   2082 ****       -26.5000   1.7500  23.5000 Du        
   2083 ****       -26.5000   1.7500  23.7500 Du        
   2084 ****       -26.5000   1.7500  24.0000 Du        
   2085 ****       -26.5000   1.7500  24.2500 Du        
   2086 ****       -26.5000   1.7500  24.5000 Du        
   2087 ****       -26.5000   1.7500  31.7500 Du        
   2088 ****       -26.5000   1.7500  32.0000 Du        
   2089 ****       -26.5000   2.0000  23.0000 Du        
   2090 ****       -26.5000   2.0000  23.2500 Du        
   2091 ****       -26.5000   2.0000  23.5000 Du        
   2092 ****       -26.5000   2.0000  23.7500 Du        
   2093 ****       -26.5000   2.0000  24.0000 Du        
   2094 ****       -26.5000   2.0000  24.2500 Du        
   2095 ****       -26.5000   2.0000  24.5000 Du        
   2096 ****       -26.5000   2.2500  23.2500 Du        
   2097 ****       -26.5000   2.2500  23.5000 Du        
   2098 ****       -26.5000   2.2500  23.7500 Du        
   2099 ****       -26.5000   2.2500  24.0000 Du        
   2100 ****       -26.5000   2.2500  24.2500 Du        
   2101 ****       -26.2500  -9.5000  35.0000 Du        
   2102 ****       -26.2500  -9.5000  35.2500 Du        
   2103 ****       -26.2500  -9.2500  34.7500 Du        
   2104 ****       -26.2500  -9.2500  35.0000 Du        
   2105 ****       -26.2500  -9.2500  35.2500 Du        
   2106 ****       -26.2500  -9.0000  34.7500 Du        
   2107 ****       -26.2500  -9.0000  35.0000 Du        
   2108 ****       -26.2500  -9.0000  35.2500 Du        
   2109 ****       -26.2500  -8.7500  34.7500 Du        
   2110 ****       -26.2500  -8.7500  35.0000 Du        
   2111 ****       -26.2500  -8.7500  35.2500 Du        
   2112 ****       -26.2500  -8.5000  34.7500 Du        
   2113 ****       -26.2500  -8.5000  35.0000 Du        
   2114 ****       -26.2500  -8.5000  35.2500 Du        
   2115 ****       -26.2500  -8.5000  35.5000 Du        
   2116 ****       -26.2500  -8.2500  34.7500 Du        
   2117 ****       -26.2500  -8.2500  35.0000 Du        
   2118 ****       -26.2500  -8.2500  35.2500 Du        
   2119 ****       -26.2500  -8.2500  35.5000 Du        
   2120 ****       -26.2500  -8.0000  34.7500 Du        
   2121 ****       -26.2500  -8.0000  35.0000 Du        
   2122 ****       -26.2500  -8.0000  35.2500 Du        
   2123 ****       -26.2500  -8.0000  35.5000 Du        
   2124 ****       -26.2500  -8.0000  35.7500 Du        
   2125 ****       -26.2500  -7.7500  34.7500 Du        
   2126 ****       -26.2500  -7.7500  35.0000 Du        
   2127 ****       -26.2500  -7.7500  35.2500 Du        
   2128 ****       -26.2500  -7.7500  35.5000 Du        
   2129 ****       -26.2500  -7.7500  35.7500 Du        
   2130 ****       -26.2500  -7.5000  34.7500 Du        
   2131 ****       -26.2500  -7.5000  35.0000 Du        
   2132 ****       -26.2500  -7.5000  35.2500 Du        
   2133 ****       -26.2500  -7.5000  35.5000 Du        
   2134 ****       -26.2500  -7.5000  35.7500 Du        
   2135 ****       -26.2500  -7.5000  36.0000 Du        
   2136 ****       -26.2500  -7.2500  34.7500 Du        
   2137 ****       -26.2500  -7.2500  35.0000 Du        
   2138 ****       -26.2500  -7.2500  35.2500 Du        
   2139 ****       -26.2500  -7.2500  35.5000 Du        
   2140 ****       -26.2500  -7.2500  35.7500 Du        
   2141 ****       -26.2500  -7.2500  36.0000 Du        
   2142 ****       -26.2500  -7.0000  34.7500 Du        
   2143 ****       -26.2500  -7.0000  35.0000 Du        
   2144 ****       -26.2500  -7.0000  35.2500 Du        
   2145 ****       -26.2500  -7.0000  35.5000 Du        
   2146 ****       -26.2500  -7.0000  35.7500 Du        
   2147 ****       -26.2500  -7.0000  36.0000 Du        
   2148 ****       -26.2500  -7.0000  36.2500 Du        
   2149 ****       -26.2500  -6.7500  34.7500 Du        
   2150 ****       -26.2500  -6.7500  35.0000 Du        
   2151 ****       -26.2500  -6.7500  35.2500 Du        
   2152 ****       -26.2500  -6.7500  35.5000 Du        
   2153 ****       -26.2500  -6.7500  35.7500 Du        
   2154 ****       -26.2500  -6.7500  36.0000 Du        
   2155 ****       -26.2500  -6.7500  36.2500 Du        
   2156 ****       -26.2500  -6.5000  34.7500 Du        
   2157 ****       -26.2500  -6.5000  35.0000 Du        
   2158 ****       -26.2500  -6.5000  35.2500 Du        
   2159 ****       -26.2500  -6.5000  35.5000 Du        
   2160 ****       -26.2500  -6.5000  35.7500 Du        
   2161 ****       -26.2500  -6.5000  36.0000 Du        
   2162 ****       -26.2500  -6.5000  36.2500 Du        
   2163 ****       -26.2500  -6.2500  35.0000 Du        
   2164 ****       -26.2500  -6.2500  35.2500 Du        
   2165 ****       -26.2500  -6.2500  35.5000 Du        
   2166 ****       -26.2500  -6.2500  35.7500 Du        
   2167 ****       -26.2500  -6.2500  36.0000 Du        
   2168 ****       -26.2500  -6.2500  36.2500 Du        
   2169 ****       -26.2500  -6.2500  36.5000 Du        
   2170 ****       -26.2500  -6.0000  35.2500 Du        
   2171 ****       -26.2500  -6.0000  35.5000 Du        
   2172 ****       -26.2500  -6.0000  35.7500 Du        
   2173 ****       -26.2500  -6.0000  36.0000 Du        
   2174 ****       -26.2500  -6.0000  36.2500 Du        
   2175 ****       -26.2500  -6.0000  36.5000 Du        
   2176 ****       -26.2500  -5.7500  35.5000 Du        
   2177 ****       -26.2500  -5.7500  35.7500 Du        
   2178 ****       -26.2500  -5.7500  36.0000 Du        
   2179 ****       -26.2500  -5.7500  36.2500 Du        
   2180 ****       -26.2500  -5.7500  36.5000 Du        
   2181 ****       -26.2500  -5.5000  35.7500 Du        
   2182 ****       -26.2500  -5.5000  36.0000 Du        
   2183 ****       -26.2500  -5.5000  36.2500 Du        
   2184 ****       -26.2500  -5.2500  36.0000 Du        
   2185 ****       -26.2500  -5.2500  36.2500 Du        
   2186 ****       -26.2500  -5.2500  36.5000 Du        
   2187 ****       -26.2500  -5.0000  36.2500 Du        
   2188 ****       -26.2500  -5.0000  36.5000 Du        
   2189 ****       -26.2500  -4.7500  36.2500 Du        
   2190 ****       -26.2500  -4.7500  36.5000 Du        
   2191 ****       -26.2500   0.2500  23.7500 Du        
   2192 ****       -26.2500   0.2500  24.0000 Du        
   2193 ****       -26.2500   0.2500  24.2500 Du        
   2194 ****       -26.2500   0.2500  24.5000 Du        
   2195 ****       -26.2500   0.5000  23.5000 Du        
   2196 ****       -26.2500   0.5000  23.7500 Du        
   2197 ****       -26.2500   0.5000  24.0000 Du        
   2198 ****       -26.2500   0.5000  24.2500 Du        
   2199 ****       -26.2500   0.5000  24.5000 Du        
   2200 ****       -26.2500   0.7500  23.2500 Du        
   2201 ****       -26.2500   0.7500  23.5000 Du        
   2202 ****       -26.2500   0.7500  23.7500 Du        
   2203 ****       -26.2500   0.7500  24.0000 Du        
   2204 ****       -26.2500   0.7500  24.2500 Du        
   2205 ****       -26.2500   0.7500  24.5000 Du        
   2206 ****       -26.2500   0.7500  31.7500 Du        
   2207 ****       -26.2500   0.7500  32.0000 Du        
   2208 ****       -26.2500   1.0000  22.7500 Du        
   2209 ****       -26.2500   1.0000  23.0000 Du        
   2210 ****       -26.2500   1.0000  23.2500 Du        
   2211 ****       -26.2500   1.0000  23.5000 Du        
   2212 ****       -26.2500   1.0000  23.7500 Du        
   2213 ****       -26.2500   1.0000  24.0000 Du        
   2214 ****       -26.2500   1.0000  24.2500 Du        
   2215 ****       -26.2500   1.0000  24.5000 Du        
   2216 ****       -26.2500   1.0000  31.5000 Du        
   2217 ****       -26.2500   1.0000  31.7500 Du        
   2218 ****       -26.2500   1.0000  32.0000 Du        
   2219 ****       -26.2500   1.0000  32.2500 Du        
   2220 ****       -26.2500   1.2500  22.5000 Du        
   2221 ****       -26.2500   1.2500  22.7500 Du        
   2222 ****       -26.2500   1.2500  23.0000 Du        
   2223 ****       -26.2500   1.2500  23.2500 Du        
   2224 ****       -26.2500   1.2500  23.5000 Du        
   2225 ****       -26.2500   1.2500  23.7500 Du        
   2226 ****       -26.2500   1.2500  24.0000 Du        
   2227 ****       -26.2500   1.2500  24.2500 Du        
   2228 ****       -26.2500   1.2500  24.5000 Du        
   2229 ****       -26.2500   1.2500  31.5000 Du        
   2230 ****       -26.2500   1.2500  31.7500 Du        
   2231 ****       -26.2500   1.2500  32.0000 Du        
   2232 ****       -26.2500   1.2500  32.2500 Du        
   2233 ****       -26.2500   1.5000  22.7500 Du        
   2234 ****       -26.2500   1.5000  23.0000 Du        
   2235 ****       -26.2500   1.5000  23.2500 Du        
   2236 ****       -26.2500   1.5000  23.5000 Du        
   2237 ****       -26.2500   1.5000  23.7500 Du        
   2238 ****       -26.2500   1.5000  24.0000 Du        
   2239 ****       -26.2500   1.5000  24.2500 Du        
   2240 ****       -26.2500   1.5000  24.5000 Du        
   2241 ****       -26.2500   1.5000  31.5000 Du        
   2242 ****       -26.2500   1.5000  31.7500 Du        
   2243 ****       -26.2500   1.5000  32.0000 Du        
   2244 ****       -26.2500   1.5000  32.2500 Du        
   2245 ****       -26.2500   1.7500  22.7500 Du        
   2246 ****       -26.2500   1.7500  23.0000 Du        
   2247 ****       -26.2500   1.7500  23.2500 Du        
   2248 ****       -26.2500   1.7500  23.5000 Du        
   2249 ****       -26.2500   1.7500  23.7500 Du        
   2250 ****       -26.2500   1.7500  24.0000 Du        
   2251 ****       -26.2500   1.7500  24.2500 Du        
   2252 ****       -26.2500   1.7500  24.5000 Du        
   2253 ****       -26.2500   1.7500  31.7500 Du        
   2254 ****       -26.2500   1.7500  32.0000 Du        
   2255 ****       -26.2500   1.7500  32.2500 Du        
   2256 ****       -26.2500   2.0000  23.0000 Du        
   2257 ****       -26.2500   2.0000  23.2500 Du        
   2258 ****       -26.2500   2.0000  23.5000 Du        
   2259 ****       -26.2500   2.0000  23.7500 Du        
   2260 ****       -26.2500   2.0000  24.0000 Du        
   2261 ****       -26.2500   2.0000  24.2500 Du        
   2262 ****       -26.2500   2.0000  32.0000 Du        
   2263 ****       -26.2500   2.2500  23.0000 Du        
   2264 ****       -26.2500   2.2500  23.2500 Du        
   2265 ****       -26.2500   2.2500  23.5000 Du        
   2266 ****       -26.2500   2.2500  23.7500 Du        
   2267 ****       -26.2500   2.2500  24.0000 Du        
   2268 ****       -26.2500   2.2500  24.2500 Du        
   2269 ****       -26.0000  -9.5000  35.0000 Du        
   2270 ****       -26.0000  -9.5000  35.2500 Du        
   2271 ****       -26.0000  -9.2500  34.7500 Du        
   2272 ****       -26.0000  -9.2500  35.0000 Du        
   2273 ****       -26.0000  -9.2500  35.2500 Du        
   2274 ****       -26.0000  -9.0000  34.7500 Du        
   2275 ****       -26.0000  -9.0000  35.0000 Du        
   2276 ****       -26.0000  -9.0000  35.2500 Du        
   2277 ****       -26.0000  -8.7500  34.7500 Du        
   2278 ****       -26.0000  -8.7500  35.0000 Du        
   2279 ****       -26.0000  -8.7500  35.2500 Du        
   2280 ****       -26.0000  -8.5000  35.0000 Du        
   2281 ****       -26.0000  -8.5000  35.2500 Du        
   2282 ****       -26.0000  -8.5000  35.5000 Du        
   2283 ****       -26.0000  -8.5000  35.7500 Du        
   2284 ****       -26.0000  -8.2500  35.0000 Du        
   2285 ****       -26.0000  -8.2500  35.2500 Du        
   2286 ****       -26.0000  -8.2500  35.5000 Du        
   2287 ****       -26.0000  -8.2500  35.7500 Du        
   2288 ****       -26.0000  -8.0000  35.0000 Du        
   2289 ****       -26.0000  -8.0000  35.2500 Du        
   2290 ****       -26.0000  -8.0000  35.5000 Du        
   2291 ****       -26.0000  -8.0000  35.7500 Du        
   2292 ****       -26.0000  -8.0000  36.0000 Du        
   2293 ****       -26.0000  -7.7500  35.0000 Du        
   2294 ****       -26.0000  -7.7500  35.2500 Du        
   2295 ****       -26.0000  -7.7500  35.5000 Du        
   2296 ****       -26.0000  -7.7500  35.7500 Du        
   2297 ****       -26.0000  -7.7500  36.0000 Du        
   2298 ****       -26.0000  -7.5000  35.0000 Du        
   2299 ****       -26.0000  -7.5000  35.2500 Du        
   2300 ****       -26.0000  -7.5000  35.5000 Du        
   2301 ****       -26.0000  -7.5000  35.7500 Du        
   2302 ****       -26.0000  -7.5000  36.0000 Du        
   2303 ****       -26.0000  -7.5000  36.2500 Du        
   2304 ****       -26.0000  -7.2500  35.0000 Du        
   2305 ****       -26.0000  -7.2500  35.2500 Du        
   2306 ****       -26.0000  -7.2500  35.5000 Du        
   2307 ****       -26.0000  -7.2500  35.7500 Du        
   2308 ****       -26.0000  -7.2500  36.0000 Du        
   2309 ****       -26.0000  -7.2500  36.2500 Du        
   2310 ****       -26.0000  -7.0000  35.0000 Du        
   2311 ****       -26.0000  -7.0000  35.2500 Du        
   2312 ****       -26.0000  -7.0000  35.5000 Du        
   2313 ****       -26.0000  -7.0000  35.7500 Du        
   2314 ****       -26.0000  -7.0000  36.0000 Du        
   2315 ****       -26.0000  -7.0000  36.2500 Du        
   2316 ****       -26.0000  -6.7500  35.0000 Du        
   2317 ****       -26.0000  -6.7500  35.2500 Du        
   2318 ****       -26.0000  -6.7500  35.5000 Du        
   2319 ****       -26.0000  -6.7500  35.7500 Du        
   2320 ****       -26.0000  -6.7500  36.0000 Du        
   2321 ****       -26.0000  -6.7500  36.2500 Du        
   2322 ****       -26.0000  -6.5000  35.0000 Du        
   2323 ****       -26.0000  -6.5000  35.2500 Du        
   2324 ****       -26.0000  -6.5000  35.5000 Du        
   2325 ****       -26.0000  -6.5000  35.7500 Du        
   2326 ****       -26.0000  -6.5000  36.0000 Du        
   2327 ****       -26.0000  -6.5000  36.2500 Du        
   2328 ****       -26.0000  -6.2500  35.0000 Du        
   2329 ****       -26.0000  -6.2500  35.2500 Du        
   2330 ****       -26.0000  -6.2500  35.5000 Du        
   2331 ****       -26.0000  -6.2500  35.7500 Du        
   2332 ****       -26.0000  -6.2500  36.0000 Du        
   2333 ****       -26.0000  -6.2500  36.2500 Du        
   2334 ****       -26.0000  -6.0000  35.2500 Du        
   2335 ****       -26.0000  -6.0000  35.5000 Du        
   2336 ****       -26.0000  -6.0000  35.7500 Du        
   2337 ****       -26.0000  -6.0000  36.0000 Du        
   2338 ****       -26.0000  -6.0000  36.2500 Du        
   2339 ****       -26.0000  -5.7500  35.7500 Du        
   2340 ****       -26.0000  -5.7500  36.0000 Du        
   2341 ****       -26.0000  -5.7500  36.2500 Du        
   2342 ****       -26.0000  -5.5000  35.7500 Du        
   2343 ****       -26.0000  -5.5000  36.0000 Du        
   2344 ****       -26.0000  -5.5000  36.2500 Du        
   2345 ****       -26.0000  -5.2500  36.0000 Du        
   2346 ****       -26.0000  -5.2500  36.2500 Du        
   2347 ****       -26.0000  -5.0000  36.0000 Du        
   2348 ****       -26.0000  -5.0000  36.2500 Du        
   2349 ****       -26.0000   0.2500  24.2500 Du        
   2350 ****       -26.0000   0.5000  24.0000 Du        
   2351 ****       -26.0000   0.5000  24.2500 Du        
   2352 ****       -26.0000   0.7500  23.7500 Du        
   2353 ****       -26.0000   0.7500  24.0000 Du        
   2354 ****       -26.0000   0.7500  24.2500 Du        
   2355 ****       -26.0000   0.7500  24.5000 Du        
   2356 ****       -26.0000   0.7500  31.7500 Du        
   2357 ****       -26.0000   0.7500  32.0000 Du        
   2358 ****       -26.0000   0.7500  32.2500 Du        
   2359 ****       -26.0000   1.0000  23.2500 Du        
   2360 ****       -26.0000   1.0000  23.5000 Du        
   2361 ****       -26.0000   1.0000  23.7500 Du        
   2362 ****       -26.0000   1.0000  24.0000 Du        
   2363 ****       -26.0000   1.0000  24.2500 Du        
   2364 ****       -26.0000   1.0000  24.5000 Du        
   2365 ****       -26.0000   1.0000  31.5000 Du        
   2366 ****       -26.0000   1.0000  31.7500 Du        
   2367 ****       -26.0000   1.0000  32.0000 Du        
   2368 ****       -26.0000   1.0000  32.2500 Du        
   2369 ****       -26.0000   1.2500  22.7500 Du        
   2370 ****       -26.0000   1.2500  23.0000 Du        
   2371 ****       -26.0000   1.2500  23.2500 Du        
   2372 ****       -26.0000   1.2500  23.5000 Du        
   2373 ****       -26.0000   1.2500  23.7500 Du        
   2374 ****       -26.0000   1.2500  24.0000 Du        
   2375 ****       -26.0000   1.2500  24.2500 Du        
   2376 ****       -26.0000   1.2500  24.5000 Du        
   2377 ****       -26.0000   1.2500  31.5000 Du        
   2378 ****       -26.0000   1.2500  31.7500 Du        
   2379 ****       -26.0000   1.2500  32.0000 Du        
   2380 ****       -26.0000   1.2500  32.2500 Du        
   2381 ****       -26.0000   1.2500  32.5000 Du        
   2382 ****       -26.0000   1.5000  22.7500 Du        
   2383 ****       -26.0000   1.5000  23.0000 Du        
   2384 ****       -26.0000   1.5000  23.2500 Du        
   2385 ****       -26.0000   1.5000  23.5000 Du        
   2386 ****       -26.0000   1.5000  23.7500 Du        
   2387 ****       -26.0000   1.5000  24.0000 Du        
   2388 ****       -26.0000   1.5000  24.2500 Du        
   2389 ****       -26.0000   1.5000  31.7500 Du        
   2390 ****       -26.0000   1.5000  32.0000 Du        
   2391 ****       -26.0000   1.5000  32.2500 Du        
   2392 ****       -26.0000   1.7500  22.7500 Du        
   2393 ****       -26.0000   1.7500  23.0000 Du        
   2394 ****       -26.0000   1.7500  23.2500 Du        
   2395 ****       -26.0000   1.7500  23.5000 Du        
   2396 ****       -26.0000   1.7500  23.7500 Du        
   2397 ****       -26.0000   1.7500  24.0000 Du        
   2398 ****       -26.0000   1.7500  24.2500 Du        
   2399 ****       -26.0000   1.7500  31.7500 Du        
   2400 ****       -26.0000   1.7500  32.0000 Du        
   2401 ****       -26.0000   1.7500  32.2500 Du        
   2402 ****       -26.0000   2.0000  22.7500 Du        
   2403 ****       -26.0000   2.0000  23.0000 Du        
   2404 ****       -26.0000   2.0000  23.2500 Du        
   2405 ****       -26.0000   2.0000  23.5000 Du        
   2406 ****       -26.0000   2.0000  23.7500 Du        
   2407 ****       -26.0000   2.0000  24.0000 Du        
   2408 ****       -26.0000   2.0000  24.2500 Du        
   2409 ****       -26.0000   2.0000  31.7500 Du        
   2410 ****       -26.0000   2.0000  32.0000 Du        
   2411 ****       -26.0000   2.2500  23.0000 Du        
   2412 ****       -26.0000   2.2500  23.2500 Du        
   2413 ****       -26.0000   2.2500  23.5000 Du        
   2414 ****       -26.0000   2.2500  23.7500 Du        
   2415 ****       -26.0000   2.2500  24.0000 Du        
   2416 ****       -25.7500  -9.5000  35.0000 Du        
   2417 ****       -25.7500  -9.5000  35.2500 Du        
   2418 ****       -25.7500  -9.2500  35.0000 Du        
   2419 ****       -25.7500  -9.2500  35.2500 Du        
   2420 ****       -25.7500  -9.0000  35.0000 Du        
   2421 ****       -25.7500  -9.0000  35.2500 Du        
   2422 ****       -25.7500  -8.7500  35.2500 Du        
   2423 ****       -25.7500  -8.5000  35.2500 Du        
   2424 ****       -25.7500  -8.5000  35.5000 Du        
   2425 ****       -25.7500  -8.5000  35.7500 Du        
   2426 ****       -25.7500  -8.2500  35.2500 Du        
   2427 ****       -25.7500  -8.2500  35.5000 Du        
   2428 ****       -25.7500  -8.2500  35.7500 Du        
   2429 ****       -25.7500  -8.2500  36.0000 Du        
   2430 ****       -25.7500  -8.0000  35.2500 Du        
   2431 ****       -25.7500  -8.0000  35.5000 Du        
   2432 ****       -25.7500  -8.0000  35.7500 Du        
   2433 ****       -25.7500  -8.0000  36.0000 Du        
   2434 ****       -25.7500  -7.7500  35.2500 Du        
   2435 ****       -25.7500  -7.7500  35.5000 Du        
   2436 ****       -25.7500  -7.7500  35.7500 Du        
   2437 ****       -25.7500  -7.7500  36.0000 Du        
   2438 ****       -25.7500  -7.5000  35.2500 Du        
   2439 ****       -25.7500  -7.5000  35.5000 Du        
   2440 ****       -25.7500  -7.5000  35.7500 Du        
   2441 ****       -25.7500  -7.5000  36.0000 Du        
   2442 ****       -25.7500  -7.5000  36.2500 Du        
   2443 ****       -25.7500  -7.2500  35.2500 Du        
   2444 ****       -25.7500  -7.2500  35.5000 Du        
   2445 ****       -25.7500  -7.2500  35.7500 Du        
   2446 ****       -25.7500  -7.2500  36.0000 Du        
   2447 ****       -25.7500  -7.2500  36.2500 Du        
   2448 ****       -25.7500  -7.0000  35.2500 Du        
   2449 ****       -25.7500  -7.0000  35.5000 Du        
   2450 ****       -25.7500  -7.0000  35.7500 Du        
   2451 ****       -25.7500  -7.0000  36.0000 Du        
   2452 ****       -25.7500  -7.0000  36.2500 Du        
   2453 ****       -25.7500  -6.7500  35.2500 Du        
   2454 ****       -25.7500  -6.7500  35.5000 Du        
   2455 ****       -25.7500  -6.7500  35.7500 Du        
   2456 ****       -25.7500  -6.7500  36.0000 Du        
   2457 ****       -25.7500  -6.5000  35.2500 Du        
   2458 ****       -25.7500  -6.5000  35.5000 Du        
   2459 ****       -25.7500  -6.5000  35.7500 Du        
   2460 ****       -25.7500  -6.5000  36.0000 Du        
   2461 ****       -25.7500  -6.2500  35.7500 Du        
   2462 ****       -25.7500  -6.2500  36.0000 Du        
   2463 ****       -25.7500   0.5000  32.0000 Du        
   2464 ****       -25.7500   0.7500  24.0000 Du        
   2465 ****       -25.7500   0.7500  24.2500 Du        
   2466 ****       -25.7500   0.7500  31.7500 Du        
   2467 ****       -25.7500   0.7500  32.0000 Du        
   2468 ****       -25.7500   0.7500  32.2500 Du        
   2469 ****       -25.7500   1.0000  23.7500 Du        
   2470 ****       -25.7500   1.0000  24.0000 Du        
   2471 ****       -25.7500   1.0000  24.2500 Du        
   2472 ****       -25.7500   1.0000  31.7500 Du        
   2473 ****       -25.7500   1.0000  32.0000 Du        
   2474 ****       -25.7500   1.0000  32.2500 Du        
   2475 ****       -25.7500   1.0000  32.5000 Du        
   2476 ****       -25.7500   1.2500  23.2500 Du        
   2477 ****       -25.7500   1.2500  23.5000 Du        
   2478 ****       -25.7500   1.2500  23.7500 Du        
   2479 ****       -25.7500   1.2500  24.0000 Du        
   2480 ****       -25.7500   1.2500  24.2500 Du        
   2481 ****       -25.7500   1.2500  31.7500 Du        
   2482 ****       -25.7500   1.2500  32.0000 Du        
   2483 ****       -25.7500   1.2500  32.2500 Du        
   2484 ****       -25.7500   1.2500  32.5000 Du        
   2485 ****       -25.7500   1.5000  22.7500 Du        
   2486 ****       -25.7500   1.5000  23.0000 Du        
   2487 ****       -25.7500   1.5000  23.2500 Du        
   2488 ****       -25.7500   1.5000  23.5000 Du        
   2489 ****       -25.7500   1.5000  23.7500 Du        
   2490 ****       -25.7500   1.5000  24.0000 Du        
   2491 ****       -25.7500   1.5000  24.2500 Du        
   2492 ****       -25.7500   1.5000  31.7500 Du        
   2493 ****       -25.7500   1.5000  32.0000 Du        
   2494 ****       -25.7500   1.5000  32.2500 Du        
   2495 ****       -25.7500   1.5000  32.5000 Du        
   2496 ****       -25.7500   1.7500  22.7500 Du        
   2497 ****       -25.7500   1.7500  23.0000 Du        
   2498 ****       -25.7500   1.7500  23.2500 Du        
   2499 ****       -25.7500   1.7500  23.5000 Du        
   2500 ****       -25.7500   1.7500  23.7500 Du        
   2501 ****       -25.7500   1.7500  24.0000 Du        
   2502 ****       -25.7500   1.7500  24.2500 Du        
   2503 ****       -25.7500   1.7500  31.7500 Du        
   2504 ****       -25.7500   1.7500  32.0000 Du        
   2505 ****       -25.7500   1.7500  32.2500 Du        
   2506 ****       -25.7500   2.0000  22.7500 Du        
   2507 ****       -25.7500   2.0000  23.0000 Du        
   2508 ****       -25.7500   2.0000  23.2500 Du        
   2509 ****       -25.7500   2.0000  23.5000 Du        
   2510 ****       -25.7500   2.0000  23.7500 Du        
   2511 ****       -25.7500   2.0000  24.0000 Du        
   2512 ****       -25.7500   2.0000  24.2500 Du        
   2513 ****       -25.7500   2.0000  31.7500 Du        
   2514 ****       -25.7500   2.0000  32.0000 Du        
   2515 ****       -25.7500   2.0000  32.2500 Du        
   2516 ****       -25.7500   2.2500  23.0000 Du        
   2517 ****       -25.7500   2.2500  23.2500 Du        
   2518 ****       -25.7500   2.2500  23.5000 Du        
   2519 ****       -25.7500   2.2500  23.7500 Du        
   2520 ****       -25.7500   2.2500  24.0000 Du        
   2521 ****       -25.5000  -8.5000  35.5000 Du        
   2522 ****       -25.5000  -8.5000  35.7500 Du        
   2523 ****       -25.5000  -8.2500  35.2500 Du        
   2524 ****       -25.5000  -8.2500  35.5000 Du        
   2525 ****       -25.5000  -8.2500  35.7500 Du        
   2526 ****       -25.5000  -8.2500  36.0000 Du        
   2527 ****       -25.5000  -8.0000  35.5000 Du        
   2528 ****       -25.5000  -8.0000  35.7500 Du        
   2529 ****       -25.5000  -8.0000  36.0000 Du        
   2530 ****       -25.5000  -7.7500  35.2500 Du        
   2531 ****       -25.5000  -7.7500  35.5000 Du        
   2532 ****       -25.5000  -7.7500  35.7500 Du        
   2533 ****       -25.5000  -7.7500  36.0000 Du        
   2534 ****       -25.5000  -7.7500  36.2500 Du        
   2535 ****       -25.5000  -7.5000  35.5000 Du        
   2536 ****       -25.5000  -7.5000  35.7500 Du        
   2537 ****       -25.5000  -7.5000  36.0000 Du        
   2538 ****       -25.5000  -7.2500  35.5000 Du        
   2539 ****       -25.5000  -7.2500  35.7500 Du        
   2540 ****       -25.5000  -7.2500  36.0000 Du        
   2541 ****       -25.5000   0.2500  32.0000 Du        
   2542 ****       -25.5000   0.5000  32.0000 Du        
   2543 ****       -25.5000   0.5000  32.2500 Du        
   2544 ****       -25.5000   0.7500  31.7500 Du        
   2545 ****       -25.5000   0.7500  32.0000 Du        
   2546 ****       -25.5000   0.7500  32.2500 Du        
   2547 ****       -25.5000   0.7500  32.5000 Du        
   2548 ****       -25.5000   1.0000  31.7500 Du        
   2549 ****       -25.5000   1.0000  32.0000 Du        
   2550 ****       -25.5000   1.0000  32.2500 Du        
   2551 ****       -25.5000   1.0000  32.5000 Du        
   2552 ****       -25.5000   1.0000  32.7500 Du        
   2553 ****       -25.5000   1.2500  23.7500 Du        
   2554 ****       -25.5000   1.2500  24.0000 Du        
   2555 ****       -25.5000   1.2500  31.7500 Du        
   2556 ****       -25.5000   1.2500  32.0000 Du        
   2557 ****       -25.5000   1.2500  32.2500 Du        
   2558 ****       -25.5000   1.2500  32.5000 Du        
   2559 ****       -25.5000   1.2500  32.7500 Du        
   2560 ****       -25.5000   1.5000  23.2500 Du        
   2561 ****       -25.5000   1.5000  23.5000 Du        
   2562 ****       -25.5000   1.5000  23.7500 Du        
   2563 ****       -25.5000   1.5000  24.0000 Du        
   2564 ****       -25.5000   1.5000  31.7500 Du        
   2565 ****       -25.5000   1.5000  32.0000 Du        
   2566 ****       -25.5000   1.5000  32.2500 Du        
   2567 ****       -25.5000   1.5000  32.5000 Du        
   2568 ****       -25.5000   1.5000  32.7500 Du        
   2569 ****       -25.5000   1.7500  22.5000 Du        
   2570 ****       -25.5000   1.7500  22.7500 Du        
   2571 ****       -25.5000   1.7500  23.0000 Du        
   2572 ****       -25.5000   1.7500  23.2500 Du        
   2573 ****       -25.5000   1.7500  23.5000 Du        
   2574 ****       -25.5000   1.7500  23.7500 Du        
   2575 ****       -25.5000   1.7500  24.0000 Du        
   2576 ****       -25.5000   1.7500  32.0000 Du        
   2577 ****       -25.5000   1.7500  32.2500 Du        
   2578 ****       -25.5000   1.7500  32.5000 Du        
   2579 ****       -25.5000   1.7500  32.7500 Du        
   2580 ****       -25.5000   2.0000  22.7500 Du        
   2581 ****       -25.5000   2.0000  23.0000 Du        
   2582 ****       -25.5000   2.0000  23.2500 Du        
   2583 ****       -25.5000   2.0000  23.5000 Du        
   2584 ****       -25.5000   2.0000  23.7500 Du        
   2585 ****       -25.5000   2.0000  24.0000 Du        
   2586 ****       -25.5000   2.0000  24.2500 Du        
   2587 ****       -25.5000   2.0000  32.0000 Du        
   2588 ****       -25.5000   2.0000  32.2500 Du        
   2589 ****       -25.5000   2.0000  32.5000 Du        
   2590 ****       -25.5000   2.2500  22.7500 Du        
   2591 ****       -25.5000   2.2500  23.0000 Du        
   2592 ****       -25.5000   2.2500  23.2500 Du        
   2593 ****       -25.5000   2.2500  23.5000 Du        
   2594 ****       -25.5000   2.2500  23.7500 Du        
   2595 ****       -25.5000   2.2500  24.0000 Du        
   2596 ****       -25.2500  -8.0000  35.7500 Du        
   2597 ****       -25.2500  -8.0000  36.0000 Du        
   2598 ****       -25.2500   0.5000  32.0000 Du        
   2599 ****       -25.2500   0.5000  32.2500 Du        
   2600 ****       -25.2500   0.7500  32.0000 Du        
   2601 ****       -25.2500   0.7500  32.2500 Du        
   2602 ****       -25.2500   1.0000  31.7500 Du        
   2603 ****       -25.2500   1.0000  32.0000 Du        
   2604 ****       -25.2500   1.0000  32.2500 Du        
   2605 ****       -25.2500   1.0000  32.5000 Du        
   2606 ****       -25.2500   1.0000  32.7500 Du        
   2607 ****       -25.2500   1.2500  31.7500 Du        
   2608 ****       -25.2500   1.2500  32.0000 Du        
   2609 ****       -25.2500   1.2500  32.2500 Du        
   2610 ****       -25.2500   1.2500  32.5000 Du        
   2611 ****       -25.2500   1.2500  32.7500 Du        
   2612 ****       -25.2500   1.5000  23.7500 Du        
   2613 ****       -25.2500   1.5000  24.0000 Du        
   2614 ****       -25.2500   1.5000  32.0000 Du        
   2615 ****       -25.2500   1.5000  32.2500 Du        
   2616 ****       -25.2500   1.5000  32.5000 Du        
   2617 ****       -25.2500   1.5000  32.7500 Du        
   2618 ****       -25.2500   1.7500  22.2500 Du        
   2619 ****       -25.2500   1.7500  22.7500 Du        
   2620 ****       -25.2500   1.7500  23.0000 Du        
   2621 ****       -25.2500   1.7500  23.2500 Du        
   2622 ****       -25.2500   1.7500  23.5000 Du        
   2623 ****       -25.2500   1.7500  23.7500 Du        
   2624 ****       -25.2500   1.7500  24.0000 Du        
   2625 ****       -25.2500   1.7500  32.0000 Du        
   2626 ****       -25.2500   1.7500  32.2500 Du        
   2627 ****       -25.2500   1.7500  32.5000 Du        
   2628 ****       -25.2500   1.7500  32.7500 Du        
   2629 ****       -25.2500   2.0000  22.0000 Du        
   2630 ****       -25.2500   2.0000  22.2500 Du        
   2631 ****       -25.2500   2.0000  22.5000 Du        
   2632 ****       -25.2500   2.0000  22.7500 Du        
   2633 ****       -25.2500   2.0000  23.0000 Du        
   2634 ****       -25.2500   2.0000  23.2500 Du        
   2635 ****       -25.2500   2.0000  23.5000 Du        
   2636 ****       -25.2500   2.0000  23.7500 Du        
   2637 ****       -25.2500   2.0000  24.0000 Du        
   2638 ****       -25.2500   2.0000  32.0000 Du        
   2639 ****       -25.2500   2.0000  32.2500 Du        
   2640 ****       -25.2500   2.0000  32.5000 Du        
   2641 ****       -25.2500   2.2500  22.5000 Du        
   2642 ****       -25.2500   2.2500  22.7500 Du        
   2643 ****       -25.2500   2.2500  23.0000 Du        
   2644 ****       -25.2500   2.2500  23.2500 Du        
   2645 ****       -25.2500   2.2500  23.5000 Du        
   2646 ****       -25.2500   2.2500  23.7500 Du        
   2647 ****       -25.2500   2.2500  24.0000 Du        
   2648 ****       -25.2500   2.5000  22.7500 Du        
   2649 ****       -25.2500   2.5000  23.0000 Du        
   2650 ****       -25.2500   2.5000  23.2500 Du        
   2651 ****       -25.2500   2.5000  23.5000 Du        
   2652 ****       -25.2500   2.5000  23.7500 Du        
   2653 ****       -25.2500   2.7500  23.0000 Du        
   2654 ****       -25.2500   2.7500  23.2500 Du        
   2655 ****       -25.0000   0.7500  32.0000 Du        
   2656 ****       -25.0000   0.7500  32.2500 Du        
   2657 ****       -25.0000   1.0000  32.0000 Du        
   2658 ****       -25.0000   1.0000  32.2500 Du        
   2659 ****       -25.0000   1.0000  32.5000 Du        
   2660 ****       -25.0000   1.2500  31.7500 Du        
   2661 ****       -25.0000   1.2500  32.0000 Du        
   2662 ****       -25.0000   1.2500  32.2500 Du        
   2663 ****       -25.0000   1.2500  32.5000 Du        
   2664 ****       -25.0000   1.2500  32.7500 Du        
   2665 ****       -25.0000   1.5000  32.0000 Du        
   2666 ****       -25.0000   1.5000  32.2500 Du        
   2667 ****       -25.0000   1.5000  32.5000 Du        
   2668 ****       -25.0000   1.7500  21.0000 Du        
   2669 ****       -25.0000   1.7500  21.2500 Du        
   2670 ****       -25.0000   1.7500  21.5000 Du        
   2671 ****       -25.0000   1.7500  21.7500 Du        
   2672 ****       -25.0000   1.7500  22.7500 Du        
   2673 ****       -25.0000   1.7500  23.0000 Du        
   2674 ****       -25.0000   1.7500  23.2500 Du        
   2675 ****       -25.0000   1.7500  23.5000 Du        
   2676 ****       -25.0000   1.7500  23.7500 Du        
   2677 ****       -25.0000   1.7500  24.0000 Du        
   2678 ****       -25.0000   1.7500  32.0000 Du        
   2679 ****       -25.0000   1.7500  32.2500 Du        
   2680 ****       -25.0000   1.7500  32.5000 Du        
   2681 ****       -25.0000   2.0000  21.2500 Du        
   2682 ****       -25.0000   2.0000  21.5000 Du        
   2683 ****       -25.0000   2.0000  21.7500 Du        
   2684 ****       -25.0000   2.0000  22.0000 Du        
   2685 ****       -25.0000   2.0000  22.2500 Du        
   2686 ****       -25.0000   2.0000  22.5000 Du        
   2687 ****       -25.0000   2.0000  22.7500 Du        
   2688 ****       -25.0000   2.0000  23.0000 Du        
   2689 ****       -25.0000   2.0000  23.2500 Du        
   2690 ****       -25.0000   2.0000  23.5000 Du        
   2691 ****       -25.0000   2.0000  23.7500 Du        
   2692 ****       -25.0000   2.0000  24.0000 Du        
   2693 ****       -25.0000   2.0000  32.2500 Du        
   2694 ****       -25.0000   2.0000  32.5000 Du        
   2695 ****       -25.0000   2.2500  21.7500 Du        
   2696 ****       -25.0000   2.2500  22.0000 Du        
   2697 ****       -25.0000   2.2500  22.2500 Du        
   2698 ****       -25.0000   2.2500  22.5000 Du        
   2699 ****       -25.0000   2.2500  22.7500 Du        
   2700 ****       -25.0000   2.2500  23.0000 Du        
   2701 ****       -25.0000   2.2500  23.2500 Du        
   2702 ****       -25.0000   2.2500  23.5000 Du        
   2703 ****       -25.0000   2.2500  23.7500 Du        
   2704 ****       -25.0000   2.2500  24.0000 Du        
   2705 ****       -25.0000   2.5000  22.5000 Du        
   2706 ****       -25.0000   2.5000  22.7500 Du        
   2707 ****       -25.0000   2.5000  23.0000 Du        
   2708 ****       -25.0000   2.5000  23.2500 Du        
   2709 ****       -25.0000   2.5000  23.5000 Du        
   2710 ****       -25.0000   2.5000  23.7500 Du        
   2711 ****       -25.0000   2.7500  22.7500 Du        
   2712 ****       -25.0000   2.7500  23.0000 Du        
   2713 ****       -25.0000   2.7500  23.2500 Du        
   2714 ****       -25.0000   2.7500  23.7500 Du        
   2715 ****       -25.0000   5.7500  18.0000 Du        
   2716 ****       -24.7500   1.0000  32.0000 Du        
   2717 ****       -24.7500   1.2500  32.0000 Du        
   2718 ****       -24.7500   1.2500  32.2500 Du        
   2719 ****       -24.7500   1.5000  32.2500 Du        
   2720 ****       -24.7500   1.7500  20.7500 Du        
   2721 ****       -24.7500   1.7500  21.0000 Du        
   2722 ****       -24.7500   1.7500  21.2500 Du        
   2723 ****       -24.7500   1.7500  21.5000 Du        
   2724 ****       -24.7500   1.7500  21.7500 Du        
   2725 ****       -24.7500   1.7500  23.0000 Du        
   2726 ****       -24.7500   1.7500  23.2500 Du        
   2727 ****       -24.7500   1.7500  23.5000 Du        
   2728 ****       -24.7500   1.7500  23.7500 Du        
   2729 ****       -24.7500   1.7500  24.0000 Du        
   2730 ****       -24.7500   1.7500  32.0000 Du        
   2731 ****       -24.7500   1.7500  32.2500 Du        
   2732 ****       -24.7500   2.0000  20.7500 Du        
   2733 ****       -24.7500   2.0000  21.0000 Du        
   2734 ****       -24.7500   2.0000  21.2500 Du        
   2735 ****       -24.7500   2.0000  21.5000 Du        
   2736 ****       -24.7500   2.0000  21.7500 Du        
   2737 ****       -24.7500   2.0000  22.0000 Du        
   2738 ****       -24.7500   2.0000  22.2500 Du        
   2739 ****       -24.7500   2.0000  22.5000 Du        
   2740 ****       -24.7500   2.0000  22.7500 Du        
   2741 ****       -24.7500   2.0000  23.0000 Du        
   2742 ****       -24.7500   2.0000  23.2500 Du        
   2743 ****       -24.7500   2.0000  23.5000 Du        
   2744 ****       -24.7500   2.0000  23.7500 Du        
   2745 ****       -24.7500   2.0000  24.0000 Du        
   2746 ****       -24.7500   2.0000  32.2500 Du        
   2747 ****       -24.7500   2.2500  20.7500 Du        
   2748 ****       -24.7500   2.2500  21.0000 Du        
   2749 ****       -24.7500   2.2500  21.2500 Du        
   2750 ****       -24.7500   2.2500  21.5000 Du        
   2751 ****       -24.7500   2.2500  21.7500 Du        
   2752 ****       -24.7500   2.2500  22.0000 Du        
   2753 ****       -24.7500   2.2500  22.2500 Du        
   2754 ****       -24.7500   2.2500  22.5000 Du        
   2755 ****       -24.7500   2.2500  22.7500 Du        
   2756 ****       -24.7500   2.2500  23.0000 Du        
   2757 ****       -24.7500   2.2500  23.2500 Du        
   2758 ****       -24.7500   2.2500  23.5000 Du        
   2759 ****       -24.7500   2.2500  23.7500 Du        
   2760 ****       -24.7500   2.2500  24.0000 Du        
   2761 ****       -24.7500   2.5000  21.2500 Du        
   2762 ****       -24.7500   2.5000  21.5000 Du        
   2763 ****       -24.7500   2.5000  21.7500 Du        
   2764 ****       -24.7500   2.5000  22.0000 Du        
   2765 ****       -24.7500   2.5000  22.2500 Du        
   2766 ****       -24.7500   2.5000  22.5000 Du        
   2767 ****       -24.7500   2.5000  22.7500 Du        
   2768 ****       -24.7500   2.5000  23.0000 Du        
   2769 ****       -24.7500   2.5000  23.2500 Du        
   2770 ****       -24.7500   2.5000  23.5000 Du        
   2771 ****       -24.7500   2.5000  23.7500 Du        
   2772 ****       -24.7500   2.7500  21.7500 Du        
   2773 ****       -24.7500   2.7500  22.0000 Du        
   2774 ****       -24.7500   2.7500  22.2500 Du        
   2775 ****       -24.7500   2.7500  22.5000 Du        
   2776 ****       -24.7500   2.7500  22.7500 Du        
   2777 ****       -24.7500   2.7500  23.0000 Du        
   2778 ****       -24.7500   2.7500  23.2500 Du        
   2779 ****       -24.7500   2.7500  23.5000 Du        
   2780 ****       -24.7500   3.0000  22.0000 Du        
   2781 ****       -24.7500   3.0000  22.2500 Du        
   2782 ****       -24.7500   3.0000  22.5000 Du        
   2783 ****       -24.7500   3.0000  22.7500 Du        
   2784 ****       -24.7500   3.0000  23.0000 Du        
   2785 ****       -24.7500   3.2500  22.2500 Du        
   2786 ****       -24.7500   6.0000  18.0000 Du        
   2787 ****       -24.7500   6.2500  18.0000 Du        
   2788 ****       -24.7500   6.2500  18.2500 Du        
   2789 ****       -24.7500   6.5000  18.0000 Du        
   2790 ****       -24.7500   6.7500  18.0000 Du        
   2791 ****       -24.7500   6.7500  18.2500 Du        
   2792 ****       -24.7500   7.0000  18.2500 Du        
   2793 ****       -24.5000 -13.7500  34.7500 Du        
   2794 ****       -24.5000 -13.7500  35.0000 Du        
   2795 ****       -24.5000   1.7500  20.7500 Du        
   2796 ****       -24.5000   1.7500  21.0000 Du        
   2797 ****       -24.5000   1.7500  21.2500 Du        
   2798 ****       -24.5000   1.7500  21.5000 Du        
   2799 ****       -24.5000   1.7500  23.2500 Du        
   2800 ****       -24.5000   1.7500  23.5000 Du        
   2801 ****       -24.5000   1.7500  23.7500 Du        
   2802 ****       -24.5000   1.7500  24.0000 Du        
   2803 ****       -24.5000   2.0000  20.7500 Du        
   2804 ****       -24.5000   2.0000  21.0000 Du        
   2805 ****       -24.5000   2.0000  21.2500 Du        
   2806 ****       -24.5000   2.0000  21.5000 Du        
   2807 ****       -24.5000   2.0000  21.7500 Du        
   2808 ****       -24.5000   2.0000  22.0000 Du        
   2809 ****       -24.5000   2.0000  22.2500 Du        
   2810 ****       -24.5000   2.0000  22.5000 Du        
   2811 ****       -24.5000   2.0000  22.7500 Du        
   2812 ****       -24.5000   2.0000  23.0000 Du        
   2813 ****       -24.5000   2.0000  23.2500 Du        
   2814 ****       -24.5000   2.0000  23.5000 Du        
   2815 ****       -24.5000   2.0000  23.7500 Du        
   2816 ****       -24.5000   2.0000  24.0000 Du        
   2817 ****       -24.5000   2.2500  20.7500 Du        
   2818 ****       -24.5000   2.2500  21.0000 Du        
   2819 ****       -24.5000   2.2500  21.2500 Du        
   2820 ****       -24.5000   2.2500  21.5000 Du        
   2821 ****       -24.5000   2.2500  21.7500 Du        
   2822 ****       -24.5000   2.2500  22.0000 Du        
   2823 ****       -24.5000   2.2500  22.2500 Du        
   2824 ****       -24.5000   2.2500  22.5000 Du        
   2825 ****       -24.5000   2.2500  22.7500 Du        
   2826 ****       -24.5000   2.2500  23.0000 Du        
   2827 ****       -24.5000   2.2500  23.2500 Du        
   2828 ****       -24.5000   2.2500  23.5000 Du        
   2829 ****       -24.5000   2.2500  23.7500 Du        
   2830 ****       -24.5000   2.2500  24.0000 Du        
   2831 ****       -24.5000   2.5000  20.5000 Du        
   2832 ****       -24.5000   2.5000  20.7500 Du        
   2833 ****       -24.5000   2.5000  21.0000 Du        
   2834 ****       -24.5000   2.5000  21.2500 Du        
   2835 ****       -24.5000   2.5000  21.5000 Du        
   2836 ****       -24.5000   2.5000  21.7500 Du        
   2837 ****       -24.5000   2.5000  22.0000 Du        
   2838 ****       -24.5000   2.5000  22.2500 Du        
   2839 ****       -24.5000   2.5000  22.5000 Du        
   2840 ****       -24.5000   2.5000  22.7500 Du        
   2841 ****       -24.5000   2.5000  23.0000 Du        
   2842 ****       -24.5000   2.5000  23.2500 Du        
   2843 ****       -24.5000   2.5000  23.5000 Du        
   2844 ****       -24.5000   2.5000  23.7500 Du        
   2845 ****       -24.5000   2.5000  24.0000 Du        
   2846 ****       -24.5000   2.7500  20.5000 Du        
   2847 ****       -24.5000   2.7500  20.7500 Du        
   2848 ****       -24.5000   2.7500  21.0000 Du        
   2849 ****       -24.5000   2.7500  21.2500 Du        
   2850 ****       -24.5000   2.7500  21.5000 Du        
   2851 ****       -24.5000   2.7500  21.7500 Du        
   2852 ****       -24.5000   2.7500  22.0000 Du        
   2853 ****       -24.5000   2.7500  22.2500 Du        
   2854 ****       -24.5000   2.7500  22.5000 Du        
   2855 ****       -24.5000   2.7500  22.7500 Du        
   2856 ****       -24.5000   2.7500  23.0000 Du        
   2857 ****       -24.5000   2.7500  23.2500 Du        
   2858 ****       -24.5000   2.7500  23.5000 Du        
   2859 ****       -24.5000   2.7500  23.7500 Du        
   2860 ****       -24.5000   2.7500  24.0000 Du        
   2861 ****       -24.5000   3.0000  20.7500 Du        
   2862 ****       -24.5000   3.0000  21.0000 Du        
   2863 ****       -24.5000   3.0000  21.2500 Du        
   2864 ****       -24.5000   3.0000  21.5000 Du        
   2865 ****       -24.5000   3.0000  21.7500 Du        
   2866 ****       -24.5000   3.0000  22.0000 Du        
   2867 ****       -24.5000   3.0000  22.2500 Du        
   2868 ****       -24.5000   3.0000  22.5000 Du        
   2869 ****       -24.5000   3.0000  22.7500 Du        
   2870 ****       -24.5000   3.0000  23.0000 Du        
   2871 ****       -24.5000   3.0000  23.2500 Du        
   2872 ****       -24.5000   3.0000  23.7500 Du        
   2873 ****       -24.5000   3.2500  21.0000 Du        
   2874 ****       -24.5000   3.2500  21.2500 Du        
   2875 ****       -24.5000   3.2500  21.7500 Du        
   2876 ****       -24.5000   3.2500  22.0000 Du        
   2877 ****       -24.5000   3.2500  22.2500 Du        
   2878 ****       -24.5000   3.2500  22.5000 Du        
   2879 ****       -24.5000   3.2500  22.7500 Du        
   2880 ****       -24.5000   4.0000  20.2500 Du        
   2881 ****       -24.5000   4.2500  20.0000 Du        
   2882 ****       -24.5000   4.2500  20.2500 Du        
   2883 ****       -24.5000   4.5000  20.0000 Du        
   2884 ****       -24.5000   4.5000  20.2500 Du        
   2885 ****       -24.5000   4.7500  20.0000 Du        
   2886 ****       -24.5000   4.7500  20.2500 Du        
   2887 ****       -24.5000   5.0000  20.0000 Du        
   2888 ****       -24.5000   5.0000  20.2500 Du        
   2889 ****       -24.5000   5.2500  20.0000 Du        
   2890 ****       -24.5000   5.2500  20.2500 Du        
   2891 ****       -24.5000   7.0000  17.7500 Du        
   2892 ****       -24.5000   7.0000  18.0000 Du        
   2893 ****       -24.5000   7.0000  18.2500 Du        
   2894 ****       -24.5000   7.0000  18.5000 Du        
   2895 ****       -24.5000   7.2500  17.7500 Du        
   2896 ****       -24.5000   7.2500  18.0000 Du        
   2897 ****       -24.5000   7.2500  18.2500 Du        
   2898 ****       -24.5000   7.2500  18.5000 Du        
   2899 ****       -24.2500 -14.2500  34.7500 Du        
   2900 ****       -24.2500 -14.2500  35.0000 Du        
   2901 ****       -24.2500 -14.2500  35.2500 Du        
   2902 ****       -24.2500 -14.0000  34.2500 Du        
   2903 ****       -24.2500 -14.0000  34.5000 Du        
   2904 ****       -24.2500 -14.0000  34.7500 Du        
   2905 ****       -24.2500 -14.0000  35.0000 Du        
   2906 ****       -24.2500 -14.0000  35.2500 Du        
   2907 ****       -24.2500 -13.7500  34.2500 Du        
   2908 ****       -24.2500 -13.7500  34.5000 Du        
   2909 ****       -24.2500 -13.7500  34.7500 Du        
   2910 ****       -24.2500 -13.7500  35.0000 Du        
   2911 ****       -24.2500 -13.7500  35.2500 Du        
   2912 ****       -24.2500 -13.5000  34.2500 Du        
   2913 ****       -24.2500 -13.5000  34.7500 Du        
   2914 ****       -24.2500 -13.5000  35.0000 Du        
   2915 ****       -24.2500 -13.2500  34.7500 Du        
   2916 ****       -24.2500 -13.2500  35.0000 Du        
   2917 ****       -24.2500 -13.0000  34.7500 Du        
   2918 ****       -24.2500 -13.0000  35.0000 Du        
   2919 ****       -24.2500 -12.7500  35.0000 Du        
   2920 ****       -24.2500   1.7500  20.7500 Du        
   2921 ****       -24.2500   1.7500  21.0000 Du        
   2922 ****       -24.2500   1.7500  21.2500 Du        
   2923 ****       -24.2500   1.7500  21.5000 Du        
   2924 ****       -24.2500   1.7500  21.7500 Du        
   2925 ****       -24.2500   1.7500  23.0000 Du        
   2926 ****       -24.2500   1.7500  23.2500 Du        
   2927 ****       -24.2500   1.7500  23.5000 Du        
   2928 ****       -24.2500   1.7500  23.7500 Du        
   2929 ****       -24.2500   1.7500  24.0000 Du        
   2930 ****       -24.2500   2.0000  20.7500 Du        
   2931 ****       -24.2500   2.0000  21.0000 Du        
   2932 ****       -24.2500   2.0000  21.2500 Du        
   2933 ****       -24.2500   2.0000  21.5000 Du        
   2934 ****       -24.2500   2.0000  21.7500 Du        
   2935 ****       -24.2500   2.0000  22.0000 Du        
   2936 ****       -24.2500   2.0000  22.2500 Du        
   2937 ****       -24.2500   2.0000  22.5000 Du        
   2938 ****       -24.2500   2.0000  22.7500 Du        
   2939 ****       -24.2500   2.0000  23.0000 Du        
   2940 ****       -24.2500   2.0000  23.2500 Du        
   2941 ****       -24.2500   2.0000  23.5000 Du        
   2942 ****       -24.2500   2.0000  23.7500 Du        
   2943 ****       -24.2500   2.0000  24.0000 Du        
   2944 ****       -24.2500   2.2500  20.7500 Du        
   2945 ****       -24.2500   2.2500  21.0000 Du        
   2946 ****       -24.2500   2.2500  21.2500 Du        
   2947 ****       -24.2500   2.2500  21.5000 Du        
   2948 ****       -24.2500   2.2500  21.7500 Du        
   2949 ****       -24.2500   2.2500  22.0000 Du        
   2950 ****       -24.2500   2.2500  22.2500 Du        
   2951 ****       -24.2500   2.2500  22.5000 Du        
   2952 ****       -24.2500   2.2500  22.7500 Du        
   2953 ****       -24.2500   2.2500  23.0000 Du        
   2954 ****       -24.2500   2.2500  23.2500 Du        
   2955 ****       -24.2500   2.2500  23.5000 Du        
   2956 ****       -24.2500   2.2500  23.7500 Du        
   2957 ****       -24.2500   2.2500  24.0000 Du        
   2958 ****       -24.2500   2.2500  24.2500 Du        
   2959 ****       -24.2500   2.5000  20.5000 Du        
   2960 ****       -24.2500   2.5000  20.7500 Du        
   2961 ****       -24.2500   2.5000  21.0000 Du        
   2962 ****       -24.2500   2.5000  21.2500 Du        
   2963 ****       -24.2500   2.5000  21.5000 Du        
   2964 ****       -24.2500   2.5000  21.7500 Du        
   2965 ****       -24.2500   2.5000  22.0000 Du        
   2966 ****       -24.2500   2.5000  22.2500 Du        
   2967 ****       -24.2500   2.5000  22.5000 Du        
   2968 ****       -24.2500   2.5000  22.7500 Du        
   2969 ****       -24.2500   2.5000  23.0000 Du        
   2970 ****       -24.2500   2.5000  23.2500 Du        
   2971 ****       -24.2500   2.5000  23.5000 Du        
   2972 ****       -24.2500   2.5000  23.7500 Du        
   2973 ****       -24.2500   2.5000  24.0000 Du        
   2974 ****       -24.2500   2.5000  24.2500 Du        
   2975 ****       -24.2500   2.7500  20.5000 Du        
   2976 ****       -24.2500   2.7500  20.7500 Du        
   2977 ****       -24.2500   2.7500  21.0000 Du        
   2978 ****       -24.2500   2.7500  21.2500 Du        
   2979 ****       -24.2500   2.7500  21.5000 Du        
   2980 ****       -24.2500   2.7500  21.7500 Du        
   2981 ****       -24.2500   2.7500  22.0000 Du        
   2982 ****       -24.2500   2.7500  22.2500 Du        
   2983 ****       -24.2500   2.7500  22.5000 Du        
   2984 ****       -24.2500   2.7500  22.7500 Du        
   2985 ****       -24.2500   2.7500  23.0000 Du        
   2986 ****       -24.2500   2.7500  23.2500 Du        
   2987 ****       -24.2500   2.7500  23.5000 Du        
   2988 ****       -24.2500   2.7500  23.7500 Du        
   2989 ****       -24.2500   2.7500  24.0000 Du        
   2990 ****       -24.2500   2.7500  24.2500 Du        
   2991 ****       -24.2500   3.0000  20.5000 Du        
   2992 ****       -24.2500   3.0000  20.7500 Du        
   2993 ****       -24.2500   3.0000  21.0000 Du        
   2994 ****       -24.2500   3.0000  21.2500 Du        
   2995 ****       -24.2500   3.0000  21.5000 Du        
   2996 ****       -24.2500   3.0000  21.7500 Du        
   2997 ****       -24.2500   3.0000  22.0000 Du        
   2998 ****       -24.2500   3.0000  22.2500 Du        
   2999 ****       -24.2500   3.0000  22.5000 Du        
   3000 ****       -24.2500   3.0000  22.7500 Du        
   3001 ****       -24.2500   3.0000  23.0000 Du        
   3002 ****       -24.2500   3.0000  23.2500 Du        
   3003 ****       -24.2500   3.0000  23.5000 Du        
   3004 ****       -24.2500   3.0000  23.7500 Du        
   3005 ****       -24.2500   3.0000  24.0000 Du        
   3006 ****       -24.2500   3.0000  24.2500 Du        
   3007 ****       -24.2500   3.2500  20.5000 Du        
   3008 ****       -24.2500   3.2500  20.7500 Du        
   3009 ****       -24.2500   3.2500  21.0000 Du        
   3010 ****       -24.2500   3.2500  21.2500 Du        
   3011 ****       -24.2500   3.2500  21.5000 Du        
   3012 ****       -24.2500   3.2500  21.7500 Du        
   3013 ****       -24.2500   3.2500  22.0000 Du        
   3014 ****       -24.2500   3.2500  22.2500 Du        
   3015 ****       -24.2500   3.2500  22.5000 Du        
   3016 ****       -24.2500   3.2500  22.7500 Du        
   3017 ****       -24.2500   3.2500  23.0000 Du        
   3018 ****       -24.2500   3.2500  23.2500 Du        
   3019 ****       -24.2500   3.5000  20.2500 Du        
   3020 ****       -24.2500   3.5000  20.5000 Du        
   3021 ****       -24.2500   3.5000  20.7500 Du        
   3022 ****       -24.2500   3.5000  21.0000 Du        
   3023 ****       -24.2500   3.5000  21.2500 Du        
   3024 ****       -24.2500   3.5000  21.5000 Du        
   3025 ****       -24.2500   3.5000  21.7500 Du        
   3026 ****       -24.2500   3.5000  22.0000 Du        
   3027 ****       -24.2500   3.5000  22.2500 Du        
   3028 ****       -24.2500   3.7500  20.0000 Du        
   3029 ****       -24.2500   3.7500  20.2500 Du        
   3030 ****       -24.2500   3.7500  20.5000 Du        
   3031 ****       -24.2500   3.7500  20.7500 Du        
   3032 ****       -24.2500   3.7500  21.0000 Du        
   3033 ****       -24.2500   3.7500  21.2500 Du        
   3034 ****       -24.2500   3.7500  21.5000 Du        
   3035 ****       -24.2500   3.7500  21.7500 Du        
   3036 ****       -24.2500   3.7500  22.0000 Du        
   3037 ****       -24.2500   3.7500  22.2500 Du        
   3038 ****       -24.2500   4.0000  20.0000 Du        
   3039 ****       -24.2500   4.0000  20.2500 Du        
   3040 ****       -24.2500   4.0000  20.5000 Du        
   3041 ****       -24.2500   4.0000  20.7500 Du        
   3042 ****       -24.2500   4.0000  21.0000 Du        
   3043 ****       -24.2500   4.0000  21.2500 Du        
   3044 ****       -24.2500   4.0000  21.7500 Du        
   3045 ****       -24.2500   4.2500  20.0000 Du        
   3046 ****       -24.2500   4.2500  20.2500 Du        
   3047 ****       -24.2500   4.2500  20.5000 Du        
   3048 ****       -24.2500   4.2500  20.7500 Du        
   3049 ****       -24.2500   4.2500  21.0000 Du        
   3050 ****       -24.2500   4.2500  21.2500 Du        
   3051 ****       -24.2500   4.5000  20.0000 Du        
   3052 ****       -24.2500   4.5000  20.2500 Du        
   3053 ****       -24.2500   4.5000  20.7500 Du        
   3054 ****       -24.2500   4.5000  21.0000 Du        
   3055 ****       -24.2500   4.7500  20.0000 Du        
   3056 ****       -24.2500   4.7500  20.2500 Du        
   3057 ****       -24.2500   4.7500  20.7500 Du        
   3058 ****       -24.2500   4.7500  21.0000 Du        
   3059 ****       -24.2500   5.0000  20.2500 Du        
   3060 ****       -24.2500   5.2500  20.2500 Du        
   3061 ****       -24.2500   7.2500  17.7500 Du        
   3062 ****       -24.2500   7.2500  18.0000 Du        
   3063 ****       -24.0000 -14.5000  34.7500 Du        
   3064 ****       -24.0000 -14.2500  34.2500 Du        
   3065 ****       -24.0000 -14.2500  34.5000 Du        
   3066 ****       -24.0000 -14.2500  34.7500 Du        
   3067 ****       -24.0000 -14.2500  35.0000 Du        
   3068 ****       -24.0000 -14.2500  35.2500 Du        
   3069 ****       -24.0000 -14.0000  34.0000 Du        
   3070 ****       -24.0000 -14.0000  34.2500 Du        
   3071 ****       -24.0000 -14.0000  34.5000 Du        
   3072 ****       -24.0000 -14.0000  34.7500 Du        
   3073 ****       -24.0000 -14.0000  35.0000 Du        
   3074 ****       -24.0000 -14.0000  35.2500 Du        
   3075 ****       -24.0000 -13.7500  34.0000 Du        
   3076 ****       -24.0000 -13.7500  34.2500 Du        
   3077 ****       -24.0000 -13.7500  34.5000 Du        
   3078 ****       -24.0000 -13.7500  34.7500 Du        
   3079 ****       -24.0000 -13.7500  35.0000 Du        
   3080 ****       -24.0000 -13.5000  34.0000 Du        
   3081 ****       -24.0000 -13.5000  34.2500 Du        
   3082 ****       -24.0000 -13.5000  34.5000 Du        
   3083 ****       -24.0000 -13.5000  34.7500 Du        
   3084 ****       -24.0000 -13.5000  35.0000 Du        
   3085 ****       -24.0000 -13.2500  34.2500 Du        
   3086 ****       -24.0000 -13.2500  34.5000 Du        
   3087 ****       -24.0000 -13.2500  34.7500 Du        
   3088 ****       -24.0000 -13.2500  35.0000 Du        
   3089 ****       -24.0000 -13.0000  34.2500 Du        
   3090 ****       -24.0000 -13.0000  34.5000 Du        
   3091 ****       -24.0000 -13.0000  34.7500 Du        
   3092 ****       -24.0000 -13.0000  35.0000 Du        
   3093 ****       -24.0000 -12.7500  34.7500 Du        
   3094 ****       -24.0000 -12.7500  35.0000 Du        
   3095 ****       -24.0000   1.5000  23.7500 Du        
   3096 ****       -24.0000   1.7500  20.7500 Du        
   3097 ****       -24.0000   1.7500  21.0000 Du        
   3098 ****       -24.0000   1.7500  21.2500 Du        
   3099 ****       -24.0000   1.7500  21.5000 Du        
   3100 ****       -24.0000   1.7500  21.7500 Du        
   3101 ****       -24.0000   1.7500  23.0000 Du        
   3102 ****       -24.0000   1.7500  23.2500 Du        
   3103 ****       -24.0000   1.7500  23.5000 Du        
   3104 ****       -24.0000   1.7500  23.7500 Du        
   3105 ****       -24.0000   1.7500  24.0000 Du        
   3106 ****       -24.0000   2.0000  20.7500 Du        
   3107 ****       -24.0000   2.0000  21.0000 Du        
   3108 ****       -24.0000   2.0000  21.2500 Du        
   3109 ****       -24.0000   2.0000  21.5000 Du        
   3110 ****       -24.0000   2.0000  21.7500 Du        
   3111 ****       -24.0000   2.0000  22.0000 Du        
   3112 ****       -24.0000   2.0000  22.2500 Du        
   3113 ****       -24.0000   2.0000  22.5000 Du        
   3114 ****       -24.0000   2.0000  22.7500 Du        
   3115 ****       -24.0000   2.0000  23.0000 Du        
   3116 ****       -24.0000   2.0000  23.2500 Du        
   3117 ****       -24.0000   2.0000  23.5000 Du        
   3118 ****       -24.0000   2.0000  23.7500 Du        
   3119 ****       -24.0000   2.0000  24.0000 Du        
   3120 ****       -24.0000   2.0000  24.2500 Du        
   3121 ****       -24.0000   2.2500  20.7500 Du        
   3122 ****       -24.0000   2.2500  21.0000 Du        
   3123 ****       -24.0000   2.2500  21.2500 Du        
   3124 ****       -24.0000   2.2500  21.5000 Du        
   3125 ****       -24.0000   2.2500  21.7500 Du        
   3126 ****       -24.0000   2.2500  22.0000 Du        
   3127 ****       -24.0000   2.2500  22.2500 Du        
   3128 ****       -24.0000   2.2500  22.5000 Du        
   3129 ****       -24.0000   2.2500  22.7500 Du        
   3130 ****       -24.0000   2.2500  23.0000 Du        
   3131 ****       -24.0000   2.2500  23.2500 Du        
   3132 ****       -24.0000   2.2500  23.5000 Du        
   3133 ****       -24.0000   2.2500  23.7500 Du        
   3134 ****       -24.0000   2.2500  24.0000 Du        
   3135 ****       -24.0000   2.2500  24.2500 Du        
   3136 ****       -24.0000   2.5000  20.7500 Du        
   3137 ****       -24.0000   2.5000  21.0000 Du        
   3138 ****       -24.0000   2.5000  21.2500 Du        
   3139 ****       -24.0000   2.5000  21.5000 Du        
   3140 ****       -24.0000   2.5000  21.7500 Du        
   3141 ****       -24.0000   2.5000  22.0000 Du        
   3142 ****       -24.0000   2.5000  22.2500 Du        
   3143 ****       -24.0000   2.5000  22.5000 Du        
   3144 ****       -24.0000   2.5000  22.7500 Du        
   3145 ****       -24.0000   2.5000  23.0000 Du        
   3146 ****       -24.0000   2.5000  23.2500 Du        
   3147 ****       -24.0000   2.5000  23.5000 Du        
   3148 ****       -24.0000   2.5000  23.7500 Du        
   3149 ****       -24.0000   2.5000  24.0000 Du        
   3150 ****       -24.0000   2.5000  24.2500 Du        
   3151 ****       -24.0000   2.7500  20.7500 Du        
   3152 ****       -24.0000   2.7500  21.0000 Du        
   3153 ****       -24.0000   2.7500  21.2500 Du        
   3154 ****       -24.0000   2.7500  21.5000 Du        
   3155 ****       -24.0000   2.7500  21.7500 Du        
   3156 ****       -24.0000   2.7500  22.0000 Du        
   3157 ****       -24.0000   2.7500  22.2500 Du        
   3158 ****       -24.0000   2.7500  22.5000 Du        
   3159 ****       -24.0000   2.7500  22.7500 Du        
   3160 ****       -24.0000   2.7500  23.0000 Du        
   3161 ****       -24.0000   2.7500  23.2500 Du        
   3162 ****       -24.0000   2.7500  23.5000 Du        
   3163 ****       -24.0000   2.7500  23.7500 Du        
   3164 ****       -24.0000   2.7500  24.0000 Du        
   3165 ****       -24.0000   2.7500  24.2500 Du        
   3166 ****       -24.0000   3.0000  20.7500 Du        
   3167 ****       -24.0000   3.0000  21.0000 Du        
   3168 ****       -24.0000   3.0000  21.2500 Du        
   3169 ****       -24.0000   3.0000  21.5000 Du        
   3170 ****       -24.0000   3.0000  21.7500 Du        
   3171 ****       -24.0000   3.0000  22.0000 Du        
   3172 ****       -24.0000   3.0000  22.2500 Du        
   3173 ****       -24.0000   3.0000  22.5000 Du        
   3174 ****       -24.0000   3.0000  22.7500 Du        
   3175 ****       -24.0000   3.0000  23.0000 Du        
   3176 ****       -24.0000   3.0000  23.2500 Du        
   3177 ****       -24.0000   3.0000  23.5000 Du        
   3178 ****       -24.0000   3.0000  23.7500 Du        
   3179 ****       -24.0000   3.0000  24.0000 Du        
   3180 ****       -24.0000   3.0000  24.2500 Du        
   3181 ****       -24.0000   3.2500  20.7500 Du        
   3182 ****       -24.0000   3.2500  21.0000 Du        
   3183 ****       -24.0000   3.2500  21.2500 Du        
   3184 ****       -24.0000   3.2500  21.5000 Du        
   3185 ****       -24.0000   3.2500  21.7500 Du        
   3186 ****       -24.0000   3.2500  22.0000 Du        
   3187 ****       -24.0000   3.2500  22.2500 Du        
   3188 ****       -24.0000   3.2500  22.5000 Du        
   3189 ****       -24.0000   3.2500  22.7500 Du        
   3190 ****       -24.0000   3.2500  23.0000 Du        
   3191 ****       -24.0000   3.2500  23.2500 Du        
   3192 ****       -24.0000   3.2500  23.5000 Du        
   3193 ****       -24.0000   3.2500  23.7500 Du        
   3194 ****       -24.0000   3.2500  24.0000 Du        
   3195 ****       -24.0000   3.5000  20.7500 Du        
   3196 ****       -24.0000   3.5000  21.0000 Du        
   3197 ****       -24.0000   3.5000  21.2500 Du        
   3198 ****       -24.0000   3.5000  21.5000 Du        
   3199 ****       -24.0000   3.5000  21.7500 Du        
   3200 ****       -24.0000   3.5000  22.0000 Du        
   3201 ****       -24.0000   3.5000  22.2500 Du        
   3202 ****       -24.0000   3.5000  22.5000 Du        
   3203 ****       -24.0000   3.5000  22.7500 Du        
   3204 ****       -24.0000   3.7500  20.5000 Du        
   3205 ****       -24.0000   3.7500  20.7500 Du        
   3206 ****       -24.0000   3.7500  21.0000 Du        
   3207 ****       -24.0000   3.7500  21.2500 Du        
   3208 ****       -24.0000   3.7500  21.5000 Du        
   3209 ****       -24.0000   3.7500  21.7500 Du        
   3210 ****       -24.0000   3.7500  22.0000 Du        
   3211 ****       -24.0000   3.7500  22.2500 Du        
   3212 ****       -24.0000   4.0000  20.2500 Du        
   3213 ****       -24.0000   4.0000  20.5000 Du        
   3214 ****       -24.0000   4.0000  20.7500 Du        
   3215 ****       -24.0000   4.0000  21.0000 Du        
   3216 ****       -24.0000   4.0000  21.2500 Du        
   3217 ****       -24.0000   4.0000  21.5000 Du        
   3218 ****       -24.0000   4.0000  21.7500 Du        
   3219 ****       -24.0000   4.0000  22.0000 Du        
   3220 ****       -24.0000   4.2500  20.2500 Du        
   3221 ****       -24.0000   4.2500  20.5000 Du        
   3222 ****       -24.0000   4.2500  20.7500 Du        
   3223 ****       -24.0000   4.2500  21.0000 Du        
   3224 ****       -24.0000   4.2500  21.2500 Du        
   3225 ****       -24.0000   4.2500  21.5000 Du        
   3226 ****       -24.0000   4.7500  20.2500 Du        
   3227 ****       -23.7500 -14.2500  34.2500 Du        
   3228 ****       -23.7500 -14.2500  34.5000 Du        
   3229 ****       -23.7500 -14.2500  34.7500 Du        
   3230 ****       -23.7500 -14.2500  35.0000 Du        
   3231 ****       -23.7500 -14.0000  34.0000 Du        
   3232 ****       -23.7500 -14.0000  34.2500 Du        
   3233 ****       -23.7500 -14.0000  34.5000 Du        
   3234 ****       -23.7500 -14.0000  34.7500 Du        
   3235 ****       -23.7500 -14.0000  35.0000 Du        
   3236 ****       -23.7500 -13.7500  34.0000 Du        
   3237 ****       -23.7500 -13.7500  34.2500 Du        
   3238 ****       -23.7500 -13.7500  34.5000 Du        
   3239 ****       -23.7500 -13.7500  34.7500 Du        
   3240 ****       -23.7500 -13.7500  35.0000 Du        
   3241 ****       -23.7500 -13.5000  34.0000 Du        
   3242 ****       -23.7500 -13.5000  34.2500 Du        
   3243 ****       -23.7500 -13.5000  34.5000 Du        
   3244 ****       -23.7500 -13.5000  34.7500 Du        
   3245 ****       -23.7500 -13.5000  35.0000 Du        
   3246 ****       -23.7500 -13.2500  34.0000 Du        
   3247 ****       -23.7500 -13.2500  34.2500 Du        
   3248 ****       -23.7500 -13.2500  34.5000 Du        
   3249 ****       -23.7500 -13.2500  34.7500 Du        
   3250 ****       -23.7500 -13.2500  35.0000 Du        
   3251 ****       -23.7500 -13.0000  34.0000 Du        
   3252 ****       -23.7500 -13.0000  34.2500 Du        
   3253 ****       -23.7500 -13.0000  34.5000 Du        
   3254 ****       -23.7500 -13.0000  34.7500 Du        
   3255 ****       -23.7500 -13.0000  35.0000 Du        
   3256 ****       -23.7500 -12.7500  34.2500 Du        
   3257 ****       -23.7500 -12.7500  34.5000 Du        
   3258 ****       -23.7500 -12.7500  34.7500 Du        
   3259 ****       -23.7500 -12.7500  35.0000 Du        
   3260 ****       -23.7500   1.5000  23.7500 Du        
   3261 ****       -23.7500   1.5000  24.0000 Du        
   3262 ****       -23.7500   1.7500  21.0000 Du        
   3263 ****       -23.7500   1.7500  21.2500 Du        
   3264 ****       -23.7500   1.7500  21.5000 Du        
   3265 ****       -23.7500   1.7500  21.7500 Du        
   3266 ****       -23.7500   1.7500  22.0000 Du        
   3267 ****       -23.7500   1.7500  22.2500 Du        
   3268 ****       -23.7500   1.7500  22.5000 Du        
   3269 ****       -23.7500   1.7500  22.7500 Du        
   3270 ****       -23.7500   1.7500  23.0000 Du        
   3271 ****       -23.7500   1.7500  23.2500 Du        
   3272 ****       -23.7500   1.7500  23.5000 Du        
   3273 ****       -23.7500   1.7500  23.7500 Du        
   3274 ****       -23.7500   1.7500  24.0000 Du        
   3275 ****       -23.7500   2.0000  21.0000 Du        
   3276 ****       -23.7500   2.0000  21.2500 Du        
   3277 ****       -23.7500   2.0000  21.5000 Du        
   3278 ****       -23.7500   2.0000  21.7500 Du        
   3279 ****       -23.7500   2.0000  22.0000 Du        
   3280 ****       -23.7500   2.0000  22.2500 Du        
   3281 ****       -23.7500   2.0000  22.5000 Du        
   3282 ****       -23.7500   2.0000  22.7500 Du        
   3283 ****       -23.7500   2.0000  23.0000 Du        
   3284 ****       -23.7500   2.0000  23.2500 Du        
   3285 ****       -23.7500   2.0000  23.5000 Du        
   3286 ****       -23.7500   2.0000  23.7500 Du        
   3287 ****       -23.7500   2.0000  24.0000 Du        
   3288 ****       -23.7500   2.0000  24.2500 Du        
   3289 ****       -23.7500   2.2500  21.0000 Du        
   3290 ****       -23.7500   2.2500  21.2500 Du        
   3291 ****       -23.7500   2.2500  21.5000 Du        
   3292 ****       -23.7500   2.2500  21.7500 Du        
   3293 ****       -23.7500   2.2500  22.0000 Du        
   3294 ****       -23.7500   2.2500  22.2500 Du        
   3295 ****       -23.7500   2.2500  22.5000 Du        
   3296 ****       -23.7500   2.2500  22.7500 Du        
   3297 ****       -23.7500   2.2500  23.0000 Du        
   3298 ****       -23.7500   2.2500  23.2500 Du        
   3299 ****       -23.7500   2.2500  23.5000 Du        
   3300 ****       -23.7500   2.2500  23.7500 Du        
   3301 ****       -23.7500   2.2500  24.0000 Du        
   3302 ****       -23.7500   2.2500  24.2500 Du        
   3303 ****       -23.7500   2.5000  21.0000 Du        
   3304 ****       -23.7500   2.5000  21.2500 Du        
   3305 ****       -23.7500   2.5000  21.5000 Du        
   3306 ****       -23.7500   2.5000  21.7500 Du        
   3307 ****       -23.7500   2.5000  22.0000 Du        
   3308 ****       -23.7500   2.5000  22.2500 Du        
   3309 ****       -23.7500   2.5000  22.5000 Du        
   3310 ****       -23.7500   2.5000  22.7500 Du        
   3311 ****       -23.7500   2.5000  23.0000 Du        
   3312 ****       -23.7500   2.5000  23.2500 Du        
   3313 ****       -23.7500   2.5000  23.5000 Du        
   3314 ****       -23.7500   2.5000  23.7500 Du        
   3315 ****       -23.7500   2.5000  24.0000 Du        
   3316 ****       -23.7500   2.5000  24.2500 Du        
   3317 ****       -23.7500   2.7500  21.0000 Du        
   3318 ****       -23.7500   2.7500  21.2500 Du        
   3319 ****       -23.7500   2.7500  21.5000 Du        
   3320 ****       -23.7500   2.7500  21.7500 Du        
   3321 ****       -23.7500   2.7500  22.0000 Du        
   3322 ****       -23.7500   2.7500  22.2500 Du        
   3323 ****       -23.7500   2.7500  22.5000 Du        
   3324 ****       -23.7500   2.7500  22.7500 Du        
   3325 ****       -23.7500   2.7500  23.0000 Du        
   3326 ****       -23.7500   2.7500  23.2500 Du        
   3327 ****       -23.7500   2.7500  23.5000 Du        
   3328 ****       -23.7500   2.7500  23.7500 Du        
   3329 ****       -23.7500   2.7500  24.0000 Du        
   3330 ****       -23.7500   2.7500  24.2500 Du        
   3331 ****       -23.7500   3.0000  21.0000 Du        
   3332 ****       -23.7500   3.0000  21.2500 Du        
   3333 ****       -23.7500   3.0000  21.5000 Du        
   3334 ****       -23.7500   3.0000  21.7500 Du        
   3335 ****       -23.7500   3.0000  22.0000 Du        
   3336 ****       -23.7500   3.0000  22.2500 Du        
   3337 ****       -23.7500   3.0000  22.5000 Du        
   3338 ****       -23.7500   3.0000  22.7500 Du        
   3339 ****       -23.7500   3.0000  23.0000 Du        
   3340 ****       -23.7500   3.0000  23.2500 Du        
   3341 ****       -23.7500   3.0000  23.5000 Du        
   3342 ****       -23.7500   3.0000  23.7500 Du        
   3343 ****       -23.7500   3.0000  24.0000 Du        
   3344 ****       -23.7500   3.0000  24.2500 Du        
   3345 ****       -23.7500   3.2500  21.0000 Du        
   3346 ****       -23.7500   3.2500  21.2500 Du        
   3347 ****       -23.7500   3.2500  21.5000 Du        
   3348 ****       -23.7500   3.2500  21.7500 Du        
   3349 ****       -23.7500   3.2500  22.0000 Du        
   3350 ****       -23.7500   3.2500  22.2500 Du        
   3351 ****       -23.7500   3.2500  22.5000 Du        
   3352 ****       -23.7500   3.2500  22.7500 Du        
   3353 ****       -23.7500   3.2500  23.0000 Du        
   3354 ****       -23.7500   3.2500  23.2500 Du        
   3355 ****       -23.7500   3.2500  23.5000 Du        
   3356 ****       -23.7500   3.2500  23.7500 Du        
   3357 ****       -23.7500   3.2500  24.0000 Du        
   3358 ****       -23.7500   3.2500  24.2500 Du        
   3359 ****       -23.7500   3.5000  21.0000 Du        
   3360 ****       -23.7500   3.5000  21.2500 Du        
   3361 ****       -23.7500   3.5000  21.5000 Du        
   3362 ****       -23.7500   3.5000  21.7500 Du        
   3363 ****       -23.7500   3.5000  22.0000 Du        
   3364 ****       -23.7500   3.5000  22.2500 Du        
   3365 ****       -23.7500   3.5000  22.5000 Du        
   3366 ****       -23.7500   3.5000  22.7500 Du        
   3367 ****       -23.7500   3.7500  21.0000 Du        
   3368 ****       -23.7500   3.7500  21.2500 Du        
   3369 ****       -23.7500   3.7500  21.5000 Du        
   3370 ****       -23.7500   3.7500  21.7500 Du        
   3371 ****       -23.7500   3.7500  22.0000 Du        
   3372 ****       -23.7500   3.7500  22.2500 Du        
   3373 ****       -23.7500   3.7500  22.5000 Du        
   3374 ****       -23.7500   3.7500  22.7500 Du        
   3375 ****       -23.7500   4.0000  20.7500 Du        
   3376 ****       -23.7500   4.0000  21.0000 Du        
   3377 ****       -23.7500   4.0000  21.2500 Du        
   3378 ****       -23.7500   4.0000  21.5000 Du        
   3379 ****       -23.7500   4.0000  21.7500 Du        
   3380 ****       -23.7500   4.0000  22.0000 Du        
   3381 ****       -23.7500   4.2500  20.7500 Du        
   3382 ****       -23.7500   4.2500  21.0000 Du        
   3383 ****       -23.7500   4.2500  21.2500 Du        
   3384 ****       -23.7500   4.2500  21.5000 Du        
   3385 ****       -23.7500   4.2500  21.7500 Du        
   3386 ****       -23.5000 -13.7500  34.2500 Du        
   3387 ****       -23.5000 -13.7500  34.7500 Du        
   3388 ****       -23.5000 -13.5000  34.0000 Du        
   3389 ****       -23.5000 -13.5000  34.2500 Du        
   3390 ****       -23.5000 -13.5000  34.5000 Du        
   3391 ****       -23.5000 -13.5000  34.7500 Du        
   3392 ****       -23.5000 -13.2500  33.7500 Du        
   3393 ****       -23.5000 -13.2500  34.0000 Du        
   3394 ****       -23.5000 -13.2500  34.2500 Du        
   3395 ****       -23.5000 -13.2500  34.5000 Du        
   3396 ****       -23.5000 -13.2500  34.7500 Du        
   3397 ****       -23.5000 -13.0000  33.7500 Du        
   3398 ****       -23.5000 -13.0000  34.0000 Du        
   3399 ****       -23.5000 -13.0000  34.2500 Du        
   3400 ****       -23.5000 -13.0000  34.5000 Du        
   3401 ****       -23.5000 -13.0000  34.7500 Du        
   3402 ****       -23.5000 -13.0000  35.0000 Du        
   3403 ****       -23.5000 -12.7500  34.0000 Du        
   3404 ****       -23.5000 -12.7500  34.2500 Du        
   3405 ****       -23.5000 -12.7500  34.5000 Du        
   3406 ****       -23.5000 -12.7500  34.7500 Du        
   3407 ****       -23.5000 -12.7500  35.0000 Du        
   3408 ****       -23.5000 -12.5000  34.2500 Du        
   3409 ****       -23.5000 -12.5000  34.5000 Du        
   3410 ****       -23.5000 -12.5000  34.7500 Du        
   3411 ****       -23.5000 -12.5000  35.0000 Du        
   3412 ****       -23.5000 -12.2500  34.7500 Du        
   3413 ****       -23.5000 -12.2500  35.0000 Du        
   3414 ****       -23.5000   1.5000  23.5000 Du        
   3415 ****       -23.5000   1.5000  23.7500 Du        
   3416 ****       -23.5000   1.5000  24.0000 Du        
   3417 ****       -23.5000   1.7500  21.0000 Du        
   3418 ****       -23.5000   1.7500  21.2500 Du        
   3419 ****       -23.5000   1.7500  21.5000 Du        
   3420 ****       -23.5000   1.7500  21.7500 Du        
   3421 ****       -23.5000   1.7500  22.0000 Du        
   3422 ****       -23.5000   1.7500  22.2500 Du        
   3423 ****       -23.5000   1.7500  22.5000 Du        
   3424 ****       -23.5000   1.7500  22.7500 Du        
   3425 ****       -23.5000   1.7500  23.0000 Du        
   3426 ****       -23.5000   1.7500  23.2500 Du        
   3427 ****       -23.5000   1.7500  23.5000 Du        
   3428 ****       -23.5000   1.7500  23.7500 Du        
   3429 ****       -23.5000   1.7500  24.0000 Du        
   3430 ****       -23.5000   1.7500  24.2500 Du        
   3431 ****       -23.5000   2.0000  21.0000 Du        
   3432 ****       -23.5000   2.0000  21.2500 Du        
   3433 ****       -23.5000   2.0000  21.5000 Du        
   3434 ****       -23.5000   2.0000  21.7500 Du        
   3435 ****       -23.5000   2.0000  22.0000 Du        
   3436 ****       -23.5000   2.0000  22.2500 Du        
   3437 ****       -23.5000   2.0000  22.5000 Du        
   3438 ****       -23.5000   2.0000  22.7500 Du        
   3439 ****       -23.5000   2.0000  23.0000 Du        
   3440 ****       -23.5000   2.0000  23.2500 Du        
   3441 ****       -23.5000   2.0000  23.5000 Du        
   3442 ****       -23.5000   2.0000  23.7500 Du        
   3443 ****       -23.5000   2.0000  24.0000 Du        
   3444 ****       -23.5000   2.0000  24.2500 Du        
   3445 ****       -23.5000   2.2500  21.2500 Du        
   3446 ****       -23.5000   2.2500  21.5000 Du        
   3447 ****       -23.5000   2.2500  21.7500 Du        
   3448 ****       -23.5000   2.2500  22.0000 Du        
   3449 ****       -23.5000   2.2500  22.2500 Du        
   3450 ****       -23.5000   2.2500  22.5000 Du        
   3451 ****       -23.5000   2.2500  22.7500 Du        
   3452 ****       -23.5000   2.2500  23.0000 Du        
   3453 ****       -23.5000   2.2500  23.2500 Du        
   3454 ****       -23.5000   2.2500  23.5000 Du        
   3455 ****       -23.5000   2.2500  23.7500 Du        
   3456 ****       -23.5000   2.2500  24.0000 Du        
   3457 ****       -23.5000   2.2500  24.2500 Du        
   3458 ****       -23.5000   2.5000  21.2500 Du        
   3459 ****       -23.5000   2.5000  21.5000 Du        
   3460 ****       -23.5000   2.5000  21.7500 Du        
   3461 ****       -23.5000   2.5000  22.0000 Du        
   3462 ****       -23.5000   2.5000  22.2500 Du        
   3463 ****       -23.5000   2.5000  22.5000 Du        
   3464 ****       -23.5000   2.5000  22.7500 Du        
   3465 ****       -23.5000   2.5000  23.0000 Du        
   3466 ****       -23.5000   2.5000  23.2500 Du        
   3467 ****       -23.5000   2.5000  23.5000 Du        
   3468 ****       -23.5000   2.5000  23.7500 Du        
   3469 ****       -23.5000   2.5000  24.0000 Du        
   3470 ****       -23.5000   2.5000  24.2500 Du        
   3471 ****       -23.5000   2.7500  21.2500 Du        
   3472 ****       -23.5000   2.7500  21.5000 Du        
   3473 ****       -23.5000   2.7500  21.7500 Du        
   3474 ****       -23.5000   2.7500  22.0000 Du        
   3475 ****       -23.5000   2.7500  22.2500 Du        
   3476 ****       -23.5000   2.7500  22.5000 Du        
   3477 ****       -23.5000   2.7500  22.7500 Du        
   3478 ****       -23.5000   2.7500  23.0000 Du        
   3479 ****       -23.5000   2.7500  23.2500 Du        
   3480 ****       -23.5000   2.7500  23.5000 Du        
   3481 ****       -23.5000   2.7500  23.7500 Du        
   3482 ****       -23.5000   2.7500  24.0000 Du        
   3483 ****       -23.5000   2.7500  24.2500 Du        
   3484 ****       -23.5000   2.7500  24.5000 Du        
   3485 ****       -23.5000   3.0000  21.2500 Du        
   3486 ****       -23.5000   3.0000  21.5000 Du        
   3487 ****       -23.5000   3.0000  21.7500 Du        
   3488 ****       -23.5000   3.0000  22.0000 Du        
   3489 ****       -23.5000   3.0000  22.2500 Du        
   3490 ****       -23.5000   3.0000  22.5000 Du        
   3491 ****       -23.5000   3.0000  22.7500 Du        
   3492 ****       -23.5000   3.0000  23.0000 Du        
   3493 ****       -23.5000   3.0000  23.2500 Du        
   3494 ****       -23.5000   3.0000  23.5000 Du        
   3495 ****       -23.5000   3.0000  23.7500 Du        
   3496 ****       -23.5000   3.0000  24.0000 Du        
   3497 ****       -23.5000   3.0000  24.2500 Du        
   3498 ****       -23.5000   3.0000  24.5000 Du        
   3499 ****       -23.5000   3.2500  21.2500 Du        
   3500 ****       -23.5000   3.2500  21.5000 Du        
   3501 ****       -23.5000   3.2500  21.7500 Du        
   3502 ****       -23.5000   3.2500  22.0000 Du        
   3503 ****       -23.5000   3.2500  22.2500 Du        
   3504 ****       -23.5000   3.2500  22.5000 Du        
   3505 ****       -23.5000   3.2500  22.7500 Du        
   3506 ****       -23.5000   3.2500  23.0000 Du        
   3507 ****       -23.5000   3.2500  23.2500 Du        
   3508 ****       -23.5000   3.2500  23.5000 Du        
   3509 ****       -23.5000   3.2500  23.7500 Du        
   3510 ****       -23.5000   3.2500  24.0000 Du        
   3511 ****       -23.5000   3.2500  24.2500 Du        
   3512 ****       -23.5000   3.2500  24.5000 Du        
   3513 ****       -23.5000   3.5000  21.2500 Du        
   3514 ****       -23.5000   3.5000  21.5000 Du        
   3515 ****       -23.5000   3.5000  21.7500 Du        
   3516 ****       -23.5000   3.5000  22.0000 Du        
   3517 ****       -23.5000   3.5000  22.2500 Du        
   3518 ****       -23.5000   3.7500  21.2500 Du        
   3519 ****       -23.5000   3.7500  21.5000 Du        
   3520 ****       -23.5000   3.7500  21.7500 Du        
   3521 ****       -23.5000   3.7500  22.0000 Du        
   3522 ****       -23.5000   3.7500  22.2500 Du        
   3523 ****       -23.5000   4.0000  21.2500 Du        
   3524 ****       -23.5000   4.0000  21.5000 Du        
   3525 ****       -23.5000   4.0000  21.7500 Du        
   3526 ****       -23.5000   4.0000  22.0000 Du        
   3527 ****       -23.5000   4.0000  22.2500 Du        
   3528 ****       -23.2500 -13.7500  34.2500 Du        
   3529 ****       -23.2500 -13.5000  34.0000 Du        
   3530 ****       -23.2500 -13.5000  34.2500 Du        
   3531 ****       -23.2500 -13.5000  34.5000 Du        
   3532 ****       -23.2500 -13.2500  33.7500 Du        
   3533 ****       -23.2500 -13.2500  34.0000 Du        
   3534 ****       -23.2500 -13.2500  34.2500 Du        
   3535 ****       -23.2500 -13.2500  34.5000 Du        
   3536 ****       -23.2500 -13.2500  34.7500 Du        
   3537 ****       -23.2500 -13.0000  33.5000 Du        
   3538 ****       -23.2500 -13.0000  33.7500 Du        
   3539 ****       -23.2500 -13.0000  34.0000 Du        
   3540 ****       -23.2500 -13.0000  34.2500 Du        
   3541 ****       -23.2500 -13.0000  34.5000 Du        
   3542 ****       -23.2500 -13.0000  34.7500 Du        
   3543 ****       -23.2500 -13.0000  35.0000 Du        
   3544 ****       -23.2500 -12.7500  33.5000 Du        
   3545 ****       -23.2500 -12.7500  33.7500 Du        
   3546 ****       -23.2500 -12.7500  34.0000 Du        
   3547 ****       -23.2500 -12.7500  34.2500 Du        
   3548 ****       -23.2500 -12.7500  34.5000 Du        
   3549 ****       -23.2500 -12.7500  34.7500 Du        
   3550 ****       -23.2500 -12.7500  35.0000 Du        
   3551 ****       -23.2500 -12.5000  34.0000 Du        
   3552 ****       -23.2500 -12.5000  34.2500 Du        
   3553 ****       -23.2500 -12.5000  34.5000 Du        
   3554 ****       -23.2500 -12.5000  34.7500 Du        
   3555 ****       -23.2500 -12.5000  35.0000 Du        
   3556 ****       -23.2500 -12.2500  34.2500 Du        
   3557 ****       -23.2500 -12.2500  34.7500 Du        
   3558 ****       -23.2500 -12.2500  35.0000 Du        
   3559 ****       -23.2500   1.5000  23.0000 Du        
   3560 ****       -23.2500   1.5000  23.2500 Du        
   3561 ****       -23.2500   1.5000  23.5000 Du        
   3562 ****       -23.2500   1.5000  23.7500 Du        
   3563 ****       -23.2500   1.5000  24.0000 Du        
   3564 ****       -23.2500   1.5000  24.2500 Du        
   3565 ****       -23.2500   1.7500  21.2500 Du        
   3566 ****       -23.2500   1.7500  21.5000 Du        
   3567 ****       -23.2500   1.7500  21.7500 Du        
   3568 ****       -23.2500   1.7500  22.0000 Du        
   3569 ****       -23.2500   1.7500  22.2500 Du        
   3570 ****       -23.2500   1.7500  22.5000 Du        
   3571 ****       -23.2500   1.7500  22.7500 Du        
   3572 ****       -23.2500   1.7500  23.0000 Du        
   3573 ****       -23.2500   1.7500  23.2500 Du        
   3574 ****       -23.2500   1.7500  23.5000 Du        
   3575 ****       -23.2500   1.7500  23.7500 Du        
   3576 ****       -23.2500   1.7500  24.0000 Du        
   3577 ****       -23.2500   1.7500  24.2500 Du        
   3578 ****       -23.2500   2.0000  21.2500 Du        
   3579 ****       -23.2500   2.0000  21.5000 Du        
   3580 ****       -23.2500   2.0000  21.7500 Du        
   3581 ****       -23.2500   2.0000  22.0000 Du        
   3582 ****       -23.2500   2.0000  22.2500 Du        
   3583 ****       -23.2500   2.0000  22.5000 Du        
   3584 ****       -23.2500   2.0000  22.7500 Du        
   3585 ****       -23.2500   2.0000  23.0000 Du        
   3586 ****       -23.2500   2.0000  23.2500 Du        
   3587 ****       -23.2500   2.0000  23.5000 Du        
   3588 ****       -23.2500   2.0000  23.7500 Du        
   3589 ****       -23.2500   2.0000  24.0000 Du        
   3590 ****       -23.2500   2.0000  24.2500 Du        
   3591 ****       -23.2500   2.0000  24.5000 Du        
   3592 ****       -23.2500   2.2500  21.2500 Du        
   3593 ****       -23.2500   2.2500  21.5000 Du        
   3594 ****       -23.2500   2.2500  21.7500 Du        
   3595 ****       -23.2500   2.2500  22.0000 Du        
   3596 ****       -23.2500   2.2500  22.2500 Du        
   3597 ****       -23.2500   2.2500  22.5000 Du        
   3598 ****       -23.2500   2.2500  22.7500 Du        
   3599 ****       -23.2500   2.2500  23.0000 Du        
   3600 ****       -23.2500   2.2500  23.2500 Du        
   3601 ****       -23.2500   2.2500  23.5000 Du        
   3602 ****       -23.2500   2.2500  23.7500 Du        
   3603 ****       -23.2500   2.2500  24.0000 Du        
   3604 ****       -23.2500   2.2500  24.2500 Du        
   3605 ****       -23.2500   2.2500  24.5000 Du        
   3606 ****       -23.2500   2.5000  21.2500 Du        
   3607 ****       -23.2500   2.5000  21.5000 Du        
   3608 ****       -23.2500   2.5000  21.7500 Du        
   3609 ****       -23.2500   2.5000  22.0000 Du        
   3610 ****       -23.2500   2.5000  22.2500 Du        
   3611 ****       -23.2500   2.5000  22.5000 Du        
   3612 ****       -23.2500   2.5000  22.7500 Du        
   3613 ****       -23.2500   2.5000  23.0000 Du        
   3614 ****       -23.2500   2.5000  23.2500 Du        
   3615 ****       -23.2500   2.5000  23.5000 Du        
   3616 ****       -23.2500   2.5000  23.7500 Du        
   3617 ****       -23.2500   2.5000  24.0000 Du        
   3618 ****       -23.2500   2.5000  24.2500 Du        
   3619 ****       -23.2500   2.5000  24.5000 Du        
   3620 ****       -23.2500   2.7500  21.2500 Du        
   3621 ****       -23.2500   2.7500  21.5000 Du        
   3622 ****       -23.2500   2.7500  21.7500 Du        
   3623 ****       -23.2500   2.7500  22.0000 Du        
   3624 ****       -23.2500   2.7500  22.2500 Du        
   3625 ****       -23.2500   2.7500  22.5000 Du        
   3626 ****       -23.2500   2.7500  22.7500 Du        
   3627 ****       -23.2500   2.7500  23.0000 Du        
   3628 ****       -23.2500   2.7500  23.2500 Du        
   3629 ****       -23.2500   2.7500  23.5000 Du        
   3630 ****       -23.2500   2.7500  23.7500 Du        
   3631 ****       -23.2500   2.7500  24.0000 Du        
   3632 ****       -23.2500   2.7500  24.2500 Du        
   3633 ****       -23.2500   2.7500  24.5000 Du        
   3634 ****       -23.2500   3.0000  21.5000 Du        
   3635 ****       -23.2500   3.0000  21.7500 Du        
   3636 ****       -23.2500   3.0000  22.0000 Du        
   3637 ****       -23.2500   3.0000  22.2500 Du        
   3638 ****       -23.2500   3.0000  22.5000 Du        
   3639 ****       -23.2500   3.0000  22.7500 Du        
   3640 ****       -23.2500   3.0000  23.0000 Du        
   3641 ****       -23.2500   3.0000  23.2500 Du        
   3642 ****       -23.2500   3.0000  23.5000 Du        
   3643 ****       -23.2500   3.0000  23.7500 Du        
   3644 ****       -23.2500   3.0000  24.0000 Du        
   3645 ****       -23.2500   3.0000  24.2500 Du        
   3646 ****       -23.2500   3.0000  24.5000 Du        
   3647 ****       -23.2500   3.0000  24.7500 Du        
   3648 ****       -23.2500   3.2500  21.5000 Du        
   3649 ****       -23.2500   3.2500  21.7500 Du        
   3650 ****       -23.2500   3.2500  22.0000 Du        
   3651 ****       -23.2500   3.2500  22.2500 Du        
   3652 ****       -23.2500   3.2500  22.5000 Du        
   3653 ****       -23.2500   3.2500  22.7500 Du        
   3654 ****       -23.2500   3.2500  23.0000 Du        
   3655 ****       -23.2500   3.2500  23.2500 Du        
   3656 ****       -23.2500   3.2500  23.5000 Du        
   3657 ****       -23.2500   3.2500  23.7500 Du        
   3658 ****       -23.2500   3.2500  24.0000 Du        
   3659 ****       -23.2500   3.2500  24.2500 Du        
   3660 ****       -23.2500   3.2500  24.5000 Du        
   3661 ****       -23.2500   3.5000  21.5000 Du        
   3662 ****       -23.2500   3.5000  21.7500 Du        
   3663 ****       -23.2500   3.5000  22.0000 Du        
   3664 ****       -23.2500   3.5000  22.2500 Du        
   3665 ****       -23.2500   3.5000  22.5000 Du        
   3666 ****       -23.2500   3.5000  22.7500 Du        
   3667 ****       -23.2500   3.7500  21.5000 Du        
   3668 ****       -23.2500   3.7500  21.7500 Du        
   3669 ****       -23.2500   3.7500  22.0000 Du        
   3670 ****       -23.2500   3.7500  22.2500 Du        
   3671 ****       -23.2500   4.0000  21.5000 Du        
   3672 ****       -23.2500   4.0000  21.7500 Du        
   3673 ****       -23.2500   4.0000  22.0000 Du        
   3674 ****       -23.2500   4.0000  22.2500 Du        
   3675 ****       -23.2500   4.2500  21.7500 Du        
   3676 ****       -23.0000 -13.5000  34.2500 Du        
   3677 ****       -23.0000 -13.5000  34.5000 Du        
   3678 ****       -23.0000 -13.5000  34.7500 Du        
   3679 ****       -23.0000 -13.2500  33.7500 Du        
   3680 ****       -23.0000 -13.2500  34.0000 Du        
   3681 ****       -23.0000 -13.2500  34.2500 Du        
   3682 ****       -23.0000 -13.2500  34.5000 Du        
   3683 ****       -23.0000 -13.2500  34.7500 Du        
   3684 ****       -23.0000 -13.2500  35.0000 Du        
   3685 ****       -23.0000 -13.0000  33.5000 Du        
   3686 ****       -23.0000 -13.0000  33.7500 Du        
   3687 ****       -23.0000 -13.0000  34.0000 Du        
   3688 ****       -23.0000 -13.0000  34.2500 Du        
   3689 ****       -23.0000 -13.0000  34.5000 Du        
   3690 ****       -23.0000 -13.0000  34.7500 Du        
   3691 ****       -23.0000 -13.0000  35.0000 Du        
   3692 ****       -23.0000 -12.7500  33.2500 Du        
   3693 ****       -23.0000 -12.7500  33.5000 Du        
   3694 ****       -23.0000 -12.7500  33.7500 Du        
   3695 ****       -23.0000 -12.7500  34.0000 Du        
   3696 ****       -23.0000 -12.7500  34.2500 Du        
   3697 ****       -23.0000 -12.7500  34.5000 Du        
   3698 ****       -23.0000 -12.7500  34.7500 Du        
   3699 ****       -23.0000 -12.7500  35.0000 Du        
   3700 ****       -23.0000 -12.5000  33.7500 Du        
   3701 ****       -23.0000 -12.5000  34.0000 Du        
   3702 ****       -23.0000 -12.5000  34.2500 Du        
   3703 ****       -23.0000 -12.5000  34.5000 Du        
   3704 ****       -23.0000 -12.5000  34.7500 Du        
   3705 ****       -23.0000 -12.5000  35.0000 Du        
   3706 ****       -23.0000   1.2500  23.7500 Du        
   3707 ****       -23.0000   1.5000  21.7500 Du        
   3708 ****       -23.0000   1.5000  22.0000 Du        
   3709 ****       -23.0000   1.5000  22.7500 Du        
   3710 ****       -23.0000   1.5000  23.0000 Du        
   3711 ****       -23.0000   1.5000  23.2500 Du        
   3712 ****       -23.0000   1.5000  23.5000 Du        
   3713 ****       -23.0000   1.5000  23.7500 Du        
   3714 ****       -23.0000   1.5000  24.0000 Du        
   3715 ****       -23.0000   1.5000  24.2500 Du        
   3716 ****       -23.0000   1.7500  21.2500 Du        
   3717 ****       -23.0000   1.7500  21.5000 Du        
   3718 ****       -23.0000   1.7500  21.7500 Du        
   3719 ****       -23.0000   1.7500  22.0000 Du        
   3720 ****       -23.0000   1.7500  22.2500 Du        
   3721 ****       -23.0000   1.7500  22.5000 Du        
   3722 ****       -23.0000   1.7500  22.7500 Du        
   3723 ****       -23.0000   1.7500  23.0000 Du        
   3724 ****       -23.0000   1.7500  23.2500 Du        
   3725 ****       -23.0000   1.7500  23.5000 Du        
   3726 ****       -23.0000   1.7500  23.7500 Du        
   3727 ****       -23.0000   1.7500  24.0000 Du        
   3728 ****       -23.0000   1.7500  24.2500 Du        
   3729 ****       -23.0000   1.7500  24.5000 Du        
   3730 ****       -23.0000   2.0000  21.2500 Du        
   3731 ****       -23.0000   2.0000  21.5000 Du        
   3732 ****       -23.0000   2.0000  21.7500 Du        
   3733 ****       -23.0000   2.0000  22.0000 Du        
   3734 ****       -23.0000   2.0000  22.2500 Du        
   3735 ****       -23.0000   2.0000  22.5000 Du        
   3736 ****       -23.0000   2.0000  22.7500 Du        
   3737 ****       -23.0000   2.0000  23.0000 Du        
   3738 ****       -23.0000   2.0000  23.2500 Du        
   3739 ****       -23.0000   2.0000  23.5000 Du        
   3740 ****       -23.0000   2.0000  23.7500 Du        
   3741 ****       -23.0000   2.0000  24.0000 Du        
   3742 ****       -23.0000   2.0000  24.2500 Du        
   3743 ****       -23.0000   2.0000  24.5000 Du        
   3744 ****       -23.0000   2.2500  21.5000 Du        
   3745 ****       -23.0000   2.2500  21.7500 Du        
   3746 ****       -23.0000   2.2500  22.0000 Du        
   3747 ****       -23.0000   2.2500  22.2500 Du        
   3748 ****       -23.0000   2.2500  22.5000 Du        
   3749 ****       -23.0000   2.2500  22.7500 Du        
   3750 ****       -23.0000   2.2500  23.0000 Du        
   3751 ****       -23.0000   2.2500  23.2500 Du        
   3752 ****       -23.0000   2.2500  23.5000 Du        
   3753 ****       -23.0000   2.2500  23.7500 Du        
   3754 ****       -23.0000   2.2500  24.0000 Du        
   3755 ****       -23.0000   2.2500  24.2500 Du        
   3756 ****       -23.0000   2.2500  24.5000 Du        
   3757 ****       -23.0000   2.5000  21.5000 Du        
   3758 ****       -23.0000   2.5000  21.7500 Du        
   3759 ****       -23.0000   2.5000  22.0000 Du        
   3760 ****       -23.0000   2.5000  22.2500 Du        
   3761 ****       -23.0000   2.5000  22.5000 Du        
   3762 ****       -23.0000   2.5000  22.7500 Du        
   3763 ****       -23.0000   2.5000  23.0000 Du        
   3764 ****       -23.0000   2.5000  23.2500 Du        
   3765 ****       -23.0000   2.5000  23.5000 Du        
   3766 ****       -23.0000   2.5000  23.7500 Du        
   3767 ****       -23.0000   2.5000  24.0000 Du        
   3768 ****       -23.0000   2.5000  24.2500 Du        
   3769 ****       -23.0000   2.5000  24.5000 Du        
   3770 ****       -23.0000   2.7500  21.5000 Du        
   3771 ****       -23.0000   2.7500  21.7500 Du        
   3772 ****       -23.0000   2.7500  22.0000 Du        
   3773 ****       -23.0000   2.7500  22.2500 Du        
   3774 ****       -23.0000   2.7500  22.5000 Du        
   3775 ****       -23.0000   2.7500  22.7500 Du        
   3776 ****       -23.0000   2.7500  23.0000 Du        
   3777 ****       -23.0000   2.7500  23.2500 Du        
   3778 ****       -23.0000   2.7500  23.5000 Du        
   3779 ****       -23.0000   2.7500  23.7500 Du        
   3780 ****       -23.0000   2.7500  24.0000 Du        
   3781 ****       -23.0000   2.7500  24.2500 Du        
   3782 ****       -23.0000   2.7500  24.5000 Du        
   3783 ****       -23.0000   2.7500  24.7500 Du        
   3784 ****       -23.0000   3.0000  21.5000 Du        
   3785 ****       -23.0000   3.0000  21.7500 Du        
   3786 ****       -23.0000   3.0000  22.0000 Du        
   3787 ****       -23.0000   3.0000  22.2500 Du        
   3788 ****       -23.0000   3.0000  22.5000 Du        
   3789 ****       -23.0000   3.0000  22.7500 Du        
   3790 ****       -23.0000   3.0000  23.0000 Du        
   3791 ****       -23.0000   3.0000  23.2500 Du        
   3792 ****       -23.0000   3.0000  23.5000 Du        
   3793 ****       -23.0000   3.0000  23.7500 Du        
   3794 ****       -23.0000   3.0000  24.0000 Du        
   3795 ****       -23.0000   3.0000  24.2500 Du        
   3796 ****       -23.0000   3.0000  24.5000 Du        
   3797 ****       -23.0000   3.0000  24.7500 Du        
   3798 ****       -23.0000   3.2500  21.5000 Du        
   3799 ****       -23.0000   3.2500  21.7500 Du        
   3800 ****       -23.0000   3.2500  22.0000 Du        
   3801 ****       -23.0000   3.2500  22.2500 Du        
   3802 ****       -23.0000   3.2500  22.5000 Du        
   3803 ****       -23.0000   3.2500  22.7500 Du        
   3804 ****       -23.0000   3.2500  23.0000 Du        
   3805 ****       -23.0000   3.2500  23.2500 Du        
   3806 ****       -23.0000   3.2500  23.5000 Du        
   3807 ****       -23.0000   3.2500  23.7500 Du        
   3808 ****       -23.0000   3.2500  24.0000 Du        
   3809 ****       -23.0000   3.2500  24.2500 Du        
   3810 ****       -23.0000   3.2500  24.5000 Du        
   3811 ****       -23.0000   3.2500  24.7500 Du        
   3812 ****       -23.0000   3.5000  21.7500 Du        
   3813 ****       -23.0000   3.5000  22.0000 Du        
   3814 ****       -23.0000   3.5000  22.2500 Du        
   3815 ****       -23.0000   3.7500  21.7500 Du        
   3816 ****       -23.0000   3.7500  22.0000 Du        
   3817 ****       -23.0000   3.7500  22.2500 Du        
   3818 ****       -23.0000   4.0000  21.7500 Du        
   3819 ****       -23.0000   4.0000  22.0000 Du        
   3820 ****       -23.0000   4.2500  21.7500 Du        
   3821 ****       -22.7500 -13.5000  34.2500 Du        
   3822 ****       -22.7500 -13.2500  34.0000 Du        
   3823 ****       -22.7500 -13.2500  34.2500 Du        
   3824 ****       -22.7500 -13.2500  34.5000 Du        
   3825 ****       -22.7500 -13.2500  34.7500 Du        
   3826 ****       -22.7500 -13.0000  33.7500 Du        
   3827 ****       -22.7500 -13.0000  34.0000 Du        
   3828 ****       -22.7500 -13.0000  34.2500 Du        
   3829 ****       -22.7500 -13.0000  34.5000 Du        
   3830 ****       -22.7500 -13.0000  34.7500 Du        
   3831 ****       -22.7500 -13.0000  35.0000 Du        
   3832 ****       -22.7500 -12.7500  33.2500 Du        
   3833 ****       -22.7500 -12.7500  33.5000 Du        
   3834 ****       -22.7500 -12.7500  33.7500 Du        
   3835 ****       -22.7500 -12.7500  34.0000 Du        
   3836 ****       -22.7500 -12.7500  34.2500 Du        
   3837 ****       -22.7500 -12.7500  34.5000 Du        
   3838 ****       -22.7500 -12.7500  34.7500 Du        
   3839 ****       -22.7500 -12.7500  35.0000 Du        
   3840 ****       -22.7500 -12.5000  34.0000 Du        
   3841 ****       -22.7500 -12.5000  34.2500 Du        
   3842 ****       -22.7500 -12.5000  34.7500 Du        
   3843 ****       -22.7500   1.2500  23.2500 Du        
   3844 ****       -22.7500   1.2500  23.5000 Du        
   3845 ****       -22.7500   1.5000  22.0000 Du        
   3846 ****       -22.7500   1.5000  22.2500 Du        
   3847 ****       -22.7500   1.5000  22.5000 Du        
   3848 ****       -22.7500   1.5000  22.7500 Du        
   3849 ****       -22.7500   1.5000  23.0000 Du        
   3850 ****       -22.7500   1.5000  23.2500 Du        
   3851 ****       -22.7500   1.5000  23.5000 Du        
   3852 ****       -22.7500   1.5000  23.7500 Du        
   3853 ****       -22.7500   1.5000  24.0000 Du        
   3854 ****       -22.7500   1.5000  24.2500 Du        
   3855 ****       -22.7500   1.7500  21.5000 Du        
   3856 ****       -22.7500   1.7500  21.7500 Du        
   3857 ****       -22.7500   1.7500  22.0000 Du        
   3858 ****       -22.7500   1.7500  22.2500 Du        
   3859 ****       -22.7500   1.7500  22.5000 Du        
   3860 ****       -22.7500   1.7500  22.7500 Du        
   3861 ****       -22.7500   1.7500  23.0000 Du        
   3862 ****       -22.7500   1.7500  23.2500 Du        
   3863 ****       -22.7500   1.7500  23.5000 Du        
   3864 ****       -22.7500   1.7500  23.7500 Du        
   3865 ****       -22.7500   1.7500  24.0000 Du        
   3866 ****       -22.7500   1.7500  24.2500 Du        
   3867 ****       -22.7500   1.7500  24.5000 Du        
   3868 ****       -22.7500   2.0000  21.5000 Du        
   3869 ****       -22.7500   2.0000  21.7500 Du        
   3870 ****       -22.7500   2.0000  22.0000 Du        
   3871 ****       -22.7500   2.0000  22.2500 Du        
   3872 ****       -22.7500   2.0000  22.5000 Du        
   3873 ****       -22.7500   2.0000  22.7500 Du        
   3874 ****       -22.7500   2.0000  23.0000 Du        
   3875 ****       -22.7500   2.0000  23.2500 Du        
   3876 ****       -22.7500   2.0000  23.5000 Du        
   3877 ****       -22.7500   2.0000  23.7500 Du        
   3878 ****       -22.7500   2.0000  24.0000 Du        
   3879 ****       -22.7500   2.0000  24.2500 Du        
   3880 ****       -22.7500   2.0000  24.5000 Du        
   3881 ****       -22.7500   2.2500  21.7500 Du        
   3882 ****       -22.7500   2.2500  22.0000 Du        
   3883 ****       -22.7500   2.2500  22.2500 Du        
   3884 ****       -22.7500   2.2500  22.5000 Du        
   3885 ****       -22.7500   2.2500  22.7500 Du        
   3886 ****       -22.7500   2.2500  23.0000 Du        
   3887 ****       -22.7500   2.2500  23.2500 Du        
   3888 ****       -22.7500   2.2500  23.5000 Du        
   3889 ****       -22.7500   2.2500  23.7500 Du        
   3890 ****       -22.7500   2.2500  24.0000 Du        
   3891 ****       -22.7500   2.2500  24.2500 Du        
   3892 ****       -22.7500   2.2500  24.5000 Du        
   3893 ****       -22.7500   2.2500  24.7500 Du        
   3894 ****       -22.7500   2.5000  21.7500 Du        
   3895 ****       -22.7500   2.5000  22.0000 Du        
   3896 ****       -22.7500   2.5000  22.2500 Du        
   3897 ****       -22.7500   2.5000  22.5000 Du        
   3898 ****       -22.7500   2.5000  22.7500 Du        
   3899 ****       -22.7500   2.5000  23.0000 Du        
   3900 ****       -22.7500   2.5000  23.2500 Du        
   3901 ****       -22.7500   2.5000  23.5000 Du        
   3902 ****       -22.7500   2.5000  23.7500 Du        
   3903 ****       -22.7500   2.5000  24.0000 Du        
   3904 ****       -22.7500   2.5000  24.2500 Du        
   3905 ****       -22.7500   2.5000  24.5000 Du        
   3906 ****       -22.7500   2.5000  24.7500 Du        
   3907 ****       -22.7500   2.7500  21.7500 Du        
   3908 ****       -22.7500   2.7500  22.0000 Du        
   3909 ****       -22.7500   2.7500  22.2500 Du        
   3910 ****       -22.7500   2.7500  22.5000 Du        
   3911 ****       -22.7500   2.7500  22.7500 Du        
   3912 ****       -22.7500   2.7500  23.0000 Du        
   3913 ****       -22.7500   2.7500  23.2500 Du        
   3914 ****       -22.7500   2.7500  23.5000 Du        
   3915 ****       -22.7500   2.7500  23.7500 Du        
   3916 ****       -22.7500   2.7500  24.0000 Du        
   3917 ****       -22.7500   2.7500  24.2500 Du        
   3918 ****       -22.7500   2.7500  24.5000 Du        
   3919 ****       -22.7500   2.7500  24.7500 Du        
   3920 ****       -22.7500   3.0000  22.0000 Du        
   3921 ****       -22.7500   3.0000  22.2500 Du        
   3922 ****       -22.7500   3.0000  22.5000 Du        
   3923 ****       -22.7500   3.0000  22.7500 Du        
   3924 ****       -22.7500   3.0000  23.0000 Du        
   3925 ****       -22.7500   3.0000  23.2500 Du        
   3926 ****       -22.7500   3.0000  23.5000 Du        
   3927 ****       -22.7500   3.0000  23.7500 Du        
   3928 ****       -22.7500   3.0000  24.0000 Du        
   3929 ****       -22.7500   3.0000  24.2500 Du        
   3930 ****       -22.7500   3.0000  24.5000 Du        
   3931 ****       -22.7500   3.0000  24.7500 Du        
   3932 ****       -22.7500   3.2500  22.0000 Du        
   3933 ****       -22.7500   3.2500  22.2500 Du        
   3934 ****       -22.7500   3.2500  22.5000 Du        
   3935 ****       -22.7500   3.2500  22.7500 Du        
   3936 ****       -22.7500   3.2500  23.0000 Du        
   3937 ****       -22.7500   3.2500  23.2500 Du        
   3938 ****       -22.7500   3.2500  23.7500 Du        
   3939 ****       -22.7500   3.2500  24.0000 Du        
   3940 ****       -22.7500   3.2500  24.2500 Du        
   3941 ****       -22.7500   3.2500  24.5000 Du        
   3942 ****       -22.7500   3.2500  24.7500 Du        
   3943 ****       -22.5000 -13.2500  34.2500 Du        
   3944 ****       -22.5000 -13.2500  34.5000 Du        
   3945 ****       -22.5000 -13.2500  34.7500 Du        
   3946 ****       -22.5000 -13.0000  34.0000 Du        
   3947 ****       -22.5000 -13.0000  34.2500 Du        
   3948 ****       -22.5000 -13.0000  34.5000 Du        
   3949 ****       -22.5000 -13.0000  34.7500 Du        
   3950 ****       -22.5000 -12.7500  33.7500 Du        
   3951 ****       -22.5000 -12.7500  34.0000 Du        
   3952 ****       -22.5000 -12.7500  34.2500 Du        
   3953 ****       -22.5000 -12.7500  34.5000 Du        
   3954 ****       -22.5000 -12.7500  34.7500 Du        
   3955 ****       -22.5000   1.7500  24.0000 Du        
   3956 ****       -22.5000   2.0000  24.0000 Du        
   3957 ****       -22.5000   2.0000  24.2500 Du        
   3958 ****       -22.5000   2.0000  24.5000 Du        
   3959 ****       -22.5000   2.2500  24.0000 Du        
   3960 ****       -22.5000   2.2500  24.2500 Du        
   3961 ****       -22.5000   2.2500  24.5000 Du        
   3962 ****       -22.5000   2.2500  24.7500 Du        
   3963 ****       -22.5000   2.5000  24.2500 Du        
   3964 ****       -22.5000   2.5000  24.5000 Du        
   3965 ****       -22.5000   2.5000  24.7500 Du        
   3966 ****       -22.5000   2.7500  24.5000 Du        
   3967 ****       -22.5000   2.7500  24.7500 Du        
   3968 ****       -22.5000   3.0000  24.7500 Du        
   3969 ****       -22.5000   3.0000  25.0000 Du        
   3970 ****       -22.2500 -13.2500  34.7500 Du        
   3971 ****       -22.2500 -13.0000  34.0000 Du        
   3972 ****       -22.2500 -13.0000  34.2500 Du        
   3973 ****       -22.2500 -13.0000  34.5000 Du        
   3974 ****       -22.2500 -13.0000  34.7500 Du        
   3975 ****       -22.2500 -12.7500  34.2500 Du        
   3976 ****       -22.0000 -13.0000  34.2500 Du        
   3977 ****       -21.7500   8.7500  13.7500 Du        
   3978 ****       -21.7500   8.7500  14.0000 Du        
   3979 ****       -21.5000   8.2500  13.2500 Du        
   3980 ****       -21.5000   8.2500  13.5000 Du        
   3981 ****       -21.5000   8.2500  13.7500 Du        
   3982 ****       -21.5000   8.2500  14.2500 Du        
   3983 ****       -21.5000   8.5000  13.2500 Du        
   3984 ****       -21.5000   8.7500  12.7500 Du        
   3985 ****       -21.5000   8.7500  13.0000 Du        
   3986 ****       -21.5000   8.7500  13.2500 Du        
   3987 ****       -21.5000   8.7500  13.5000 Du        
   3988 ****       -21.5000   8.7500  13.7500 Du        
   3989 ****       -21.5000   8.7500  14.0000 Du        
   3990 ****       -21.5000   9.0000  12.7500 Du        
   3991 ****       -21.5000   9.0000  13.0000 Du        
   3992 ****       -21.5000   9.0000  13.2500 Du        
   3993 ****       -21.5000   9.2500  12.7500 Du        
   3994 ****       -21.5000   9.2500  13.0000 Du        
   3995 ****       -21.2500   4.0000  28.0000 Du        
   3996 ****       -21.2500   4.0000  28.2500 Du        
   3997 ****       -21.2500   8.2500  13.0000 Du        
   3998 ****       -21.2500   8.2500  13.2500 Du        
   3999 ****       -21.2500   8.2500  13.5000 Du        
   4000 ****       -21.2500   8.2500  13.7500 Du        
   4001 ****       -21.2500   8.2500  14.0000 Du        
   4002 ****       -21.2500   8.2500  14.2500 Du        
   4003 ****       -21.2500   8.5000  13.0000 Du        
   4004 ****       -21.2500   8.5000  13.2500 Du        
   4005 ****       -21.2500   8.5000  13.5000 Du        
   4006 ****       -21.2500   8.5000  13.7500 Du        
   4007 ****       -21.2500   8.5000  14.0000 Du        
   4008 ****       -21.2500   8.5000  14.2500 Du        
   4009 ****       -21.2500   8.7500  12.7500 Du        
   4010 ****       -21.2500   8.7500  13.0000 Du        
   4011 ****       -21.2500   8.7500  13.2500 Du        
   4012 ****       -21.2500   8.7500  13.5000 Du        
   4013 ****       -21.2500   8.7500  13.7500 Du        
   4014 ****       -21.2500   8.7500  14.0000 Du        
   4015 ****       -21.2500   9.0000  12.5000 Du        
   4016 ****       -21.2500   9.0000  12.7500 Du        
   4017 ****       -21.2500   9.0000  13.0000 Du        
   4018 ****       -21.2500   9.0000  13.2500 Du        
   4019 ****       -21.2500   9.0000  13.5000 Du        
   4020 ****       -21.2500   9.0000  13.7500 Du        
   4021 ****       -21.2500   9.2500  12.5000 Du        
   4022 ****       -21.2500   9.2500  12.7500 Du        
   4023 ****       -21.2500   9.2500  13.0000 Du        
   4024 ****       -21.2500   9.2500  13.2500 Du        
   4025 ****       -21.0000   3.7500  28.0000 Du        
   4026 ****       -21.0000   3.7500  28.2500 Du        
   4027 ****       -21.0000   4.0000  28.0000 Du        
   4028 ****       -21.0000   4.0000  28.2500 Du        
   4029 ****       -21.0000   4.0000  28.5000 Du        
   4030 ****       -21.0000   4.2500  28.0000 Du        
   4031 ****       -21.0000   4.2500  28.2500 Du        
   4032 ****       -21.0000   7.7500  15.0000 Du        
   4033 ****       -21.0000   8.0000  13.2500 Du        
   4034 ****       -21.0000   8.0000  13.5000 Du        
   4035 ****       -21.0000   8.0000  13.7500 Du        
   4036 ****       -21.0000   8.0000  14.0000 Du        
   4037 ****       -21.0000   8.0000  14.2500 Du        
   4038 ****       -21.0000   8.2500  13.0000 Du        
   4039 ****       -21.0000   8.2500  13.2500 Du        
   4040 ****       -21.0000   8.2500  13.5000 Du        
   4041 ****       -21.0000   8.2500  13.7500 Du        
   4042 ****       -21.0000   8.2500  14.0000 Du        
   4043 ****       -21.0000   8.2500  14.2500 Du        
   4044 ****       -21.0000   8.5000  13.0000 Du        
   4045 ****       -21.0000   8.5000  13.2500 Du        
   4046 ****       -21.0000   8.5000  13.5000 Du        
   4047 ****       -21.0000   8.5000  13.7500 Du        
   4048 ****       -21.0000   8.5000  14.0000 Du        
   4049 ****       -21.0000   8.5000  14.2500 Du        
   4050 ****       -21.0000   8.7500  12.7500 Du        
   4051 ****       -21.0000   8.7500  13.0000 Du        
   4052 ****       -21.0000   8.7500  13.2500 Du        
   4053 ****       -21.0000   8.7500  13.5000 Du        
   4054 ****       -21.0000   8.7500  13.7500 Du        
   4055 ****       -21.0000   8.7500  14.0000 Du        
   4056 ****       -21.0000   9.0000  12.7500 Du        
   4057 ****       -21.0000   9.0000  13.0000 Du        
   4058 ****       -21.0000   9.0000  13.2500 Du        
   4059 ****       -21.0000   9.2500  12.5000 Du        
   4060 ****       -21.0000   9.2500  12.7500 Du        
   4061 ****       -21.0000   9.2500  13.0000 Du        
   4062 ****       -21.0000   9.2500  13.2500 Du        
   4063 ****       -20.7500   3.7500  28.2500 Du        
   4064 ****       -20.7500   4.0000  28.0000 Du        
   4065 ****       -20.7500   4.0000  28.2500 Du        
   4066 ****       -20.7500   4.2500  28.2500 Du        
   4067 ****       -20.7500   7.7500  14.2500 Du        
   4068 ****       -20.7500   8.0000  13.2500 Du        
   4069 ****       -20.7500   8.0000  13.5000 Du        
   4070 ****       -20.7500   8.0000  13.7500 Du        
   4071 ****       -20.7500   8.0000  14.0000 Du        
   4072 ****       -20.7500   8.0000  14.2500 Du        
   4073 ****       -20.7500   8.0000  14.5000 Du        
   4074 ****       -20.7500   8.2500  13.0000 Du        
   4075 ****       -20.7500   8.2500  13.2500 Du        
   4076 ****       -20.7500   8.2500  13.5000 Du        
   4077 ****       -20.7500   8.2500  13.7500 Du        
   4078 ****       -20.7500   8.2500  14.0000 Du        
   4079 ****       -20.7500   8.2500  14.2500 Du        
   4080 ****       -20.7500   8.5000  13.0000 Du        
   4081 ****       -20.7500   8.5000  13.2500 Du        
   4082 ****       -20.7500   8.5000  13.5000 Du        
   4083 ****       -20.7500   8.5000  13.7500 Du        
   4084 ****       -20.7500   8.5000  14.0000 Du        
   4085 ****       -20.7500   8.7500  13.0000 Du        
   4086 ****       -20.7500   8.7500  13.2500 Du        
   4087 ****       -20.7500   8.7500  13.5000 Du        
   4088 ****       -20.7500   8.7500  13.7500 Du        
   4089 ****       -20.7500   9.0000  12.7500 Du        
   4090 ****       -20.7500   9.0000  13.0000 Du        
   4091 ****       -20.7500   9.0000  13.2500 Du        
   4092 ****       -20.7500   9.2500  12.7500 Du        
   4093 ****       -20.7500   9.2500  13.0000 Du        
   4094 ****       -20.7500   9.2500  13.2500 Du        
   4095 ****       -20.5000   4.0000  29.0000 Du        
   4096 ****       -20.5000   4.0000  29.2500 Du        
   4097 ****       -20.5000   7.7500  13.7500 Du        
   4098 ****       -20.5000   7.7500  14.0000 Du        
   4099 ****       -20.5000   7.7500  14.2500 Du        
   4100 ****       -20.5000   8.0000  13.2500 Du        
   4101 ****       -20.5000   8.0000  13.5000 Du        
   4102 ****       -20.5000   8.0000  13.7500 Du        
   4103 ****       -20.5000   8.0000  14.0000 Du        
   4104 ****       -20.5000   8.0000  14.2500 Du        
   4105 ****       -20.5000   8.2500  13.2500 Du        
   4106 ****       -20.5000   8.2500  13.5000 Du        
   4107 ****       -20.5000   8.2500  13.7500 Du        
   4108 ****       -20.5000   8.2500  14.0000 Du        
   4109 ****       -20.5000   8.2500  14.2500 Du        
   4110 ****       -20.5000   8.5000  13.2500 Du        
   4111 ****       -20.5000   8.7500  13.0000 Du        
   4112 ****       -20.5000   8.7500  13.2500 Du        
   4113 ****       -20.2500   7.2500  14.0000 Du        
   4114 ****       -20.2500   7.2500  14.2500 Du        
   4115 ****       -20.2500   7.2500  14.5000 Du        
   4116 ****       -20.2500   7.2500  14.7500 Du        
   4117 ****       -20.2500   7.5000  13.7500 Du        
   4118 ****       -20.2500   7.5000  14.0000 Du        
   4119 ****       -20.2500   7.5000  14.2500 Du        
   4120 ****       -20.2500   7.7500  13.5000 Du        
   4121 ****       -20.2500   7.7500  13.7500 Du        
   4122 ****       -20.2500   7.7500  14.0000 Du        
   4123 ****       -20.2500   7.7500  14.2500 Du        
   4124 ****       -20.2500   8.0000  13.2500 Du        
   4125 ****       -20.2500   8.0000  13.5000 Du        
   4126 ****       -20.2500   8.0000  13.7500 Du        
   4127 ****       -20.2500   8.0000  14.0000 Du        
   4128 ****       -20.2500   8.0000  14.2500 Du        
   4129 ****       -20.2500   8.2500  13.2500 Du        
   4130 ****       -20.2500   8.2500  13.5000 Du        
   4131 ****       -20.2500   8.2500  13.7500 Du        
   4132 ****       -20.2500   8.2500  14.0000 Du        
   4133 ****       -20.2500   8.2500  14.2500 Du        
   4134 ****       -20.2500   8.5000  13.2500 Du        
   4135 ****       -20.2500   8.7500  13.2500 Du        
   4136 ****       -20.0000   4.0000  31.0000 Du        
   4137 ****       -20.0000   6.7500  14.2500 Du        
   4138 ****       -20.0000   7.0000  13.7500 Du        
   4139 ****       -20.0000   7.0000  14.0000 Du        
   4140 ****       -20.0000   7.0000  14.2500 Du        
   4141 ****       -20.0000   7.0000  14.5000 Du        
   4142 ****       -20.0000   7.0000  14.7500 Du        
   4143 ****       -20.0000   7.2500  13.7500 Du        
   4144 ****       -20.0000   7.2500  14.0000 Du        
   4145 ****       -20.0000   7.2500  14.2500 Du        
   4146 ****       -20.0000   7.2500  14.5000 Du        
   4147 ****       -20.0000   7.2500  14.7500 Du        
   4148 ****       -20.0000   7.5000  13.5000 Du        
   4149 ****       -20.0000   7.5000  13.7500 Du        
   4150 ****       -20.0000   7.5000  14.0000 Du        
   4151 ****       -20.0000   7.5000  14.2500 Du        
   4152 ****       -20.0000   7.5000  14.5000 Du        
   4153 ****       -20.0000   7.7500  13.5000 Du        
   4154 ****       -20.0000   7.7500  13.7500 Du        
   4155 ****       -20.0000   7.7500  14.0000 Du        
   4156 ****       -20.0000   7.7500  14.2500 Du        
   4157 ****       -20.0000   8.0000  13.2500 Du        
   4158 ****       -20.0000   8.0000  13.5000 Du        
   4159 ****       -20.0000   8.0000  13.7500 Du        
   4160 ****       -20.0000   8.0000  14.0000 Du        
   4161 ****       -20.0000   8.0000  14.2500 Du        
   4162 ****       -20.0000   8.2500  13.2500 Du        
   4163 ****       -20.0000   8.2500  13.5000 Du        
   4164 ****       -20.0000   8.2500  13.7500 Du        
   4165 ****       -20.0000   8.2500  14.0000 Du        
   4166 ****       -19.7500   6.0000  14.0000 Du        
   4167 ****       -19.7500   6.2500  14.0000 Du        
   4168 ****       -19.7500   6.2500  14.2500 Du        
   4169 ****       -19.7500   6.5000  14.0000 Du        
   4170 ****       -19.7500   6.5000  14.2500 Du        
   4171 ****       -19.7500   6.7500  13.7500 Du        
   4172 ****       -19.7500   6.7500  14.0000 Du        
   4173 ****       -19.7500   6.7500  14.2500 Du        
   4174 ****       -19.7500   6.7500  14.5000 Du        
   4175 ****       -19.7500   7.0000  13.7500 Du        
   4176 ****       -19.7500   7.0000  14.0000 Du        
   4177 ****       -19.7500   7.0000  14.2500 Du        
   4178 ****       -19.7500   7.0000  14.5000 Du        
   4179 ****       -19.7500   7.0000  14.7500 Du        
   4180 ****       -19.7500   7.2500  13.5000 Du        
   4181 ****       -19.7500   7.2500  13.7500 Du        
   4182 ****       -19.7500   7.2500  14.0000 Du        
   4183 ****       -19.7500   7.2500  14.2500 Du        
   4184 ****       -19.7500   7.2500  14.5000 Du        
   4185 ****       -19.7500   7.2500  14.7500 Du        
   4186 ****       -19.7500   7.5000  13.5000 Du        
   4187 ****       -19.7500   7.5000  13.7500 Du        
   4188 ****       -19.7500   7.5000  14.0000 Du        
   4189 ****       -19.7500   7.5000  14.2500 Du        
   4190 ****       -19.7500   7.7500  13.5000 Du        
   4191 ****       -19.7500   7.7500  13.7500 Du        
   4192 ****       -19.7500   7.7500  14.0000 Du        
   4193 ****       -19.7500   7.7500  14.2500 Du        
   4194 ****       -19.7500   8.0000  13.2500 Du        
   4195 ****       -19.7500   8.0000  13.5000 Du        
   4196 ****       -19.7500   8.0000  13.7500 Du        
   4197 ****       -19.7500   8.0000  14.0000 Du        
   4198 ****       -19.7500   8.0000  14.2500 Du        
   4199 ****       -19.7500   8.2500  13.2500 Du        
   4200 ****       -19.7500   8.2500  13.5000 Du        
   4201 ****       -19.7500   8.2500  13.7500 Du        
   4202 ****       -19.7500   8.2500  14.0000 Du        
   4203 ****       -19.5000   5.5000  14.0000 Du        
   4204 ****       -19.5000   5.7500  14.0000 Du        
   4205 ****       -19.5000   5.7500  14.2500 Du        
   4206 ****       -19.5000   6.0000  14.0000 Du        
   4207 ****       -19.5000   6.0000  14.2500 Du        
   4208 ****       -19.5000   6.2500  13.7500 Du        
   4209 ****       -19.5000   6.2500  14.0000 Du        
   4210 ****       -19.5000   6.2500  14.2500 Du        
   4211 ****       -19.5000   6.5000  13.7500 Du        
   4212 ****       -19.5000   6.5000  14.0000 Du        
   4213 ****       -19.5000   6.5000  14.2500 Du        
   4214 ****       -19.5000   6.7500  13.7500 Du        
   4215 ****       -19.5000   6.7500  14.0000 Du        
   4216 ****       -19.5000   6.7500  14.2500 Du        
   4217 ****       -19.5000   6.7500  14.5000 Du        
   4218 ****       -19.5000   7.0000  13.7500 Du        
   4219 ****       -19.5000   7.0000  14.0000 Du        
   4220 ****       -19.5000   7.0000  14.2500 Du        
   4221 ****       -19.5000   7.0000  14.5000 Du        
   4222 ****       -19.5000   7.2500  13.5000 Du        
   4223 ****       -19.5000   7.2500  13.7500 Du        
   4224 ****       -19.5000   7.2500  14.0000 Du        
   4225 ****       -19.5000   7.2500  14.2500 Du        
   4226 ****       -19.5000   7.2500  14.5000 Du        
   4227 ****       -19.5000   7.5000  13.7500 Du        
   4228 ****       -19.5000   7.5000  14.0000 Du        
   4229 ****       -19.5000   7.5000  14.2500 Du        
   4230 ****       -19.5000   7.7500  13.7500 Du        
   4231 ****       -19.5000   7.7500  14.0000 Du        
   4232 ****       -19.5000   7.7500  14.2500 Du        
   4233 ****       -19.5000   8.0000  13.7500 Du        
   4234 ****       -19.5000   8.0000  14.0000 Du        
   4235 ****       -19.5000   8.0000  14.2500 Du        
   4236 ****       -19.2500   5.2500  14.0000 Du        
   4237 ****       -19.2500   5.5000  13.7500 Du        
   4238 ****       -19.2500   5.5000  14.0000 Du        
   4239 ****       -19.2500   5.7500  13.7500 Du        
   4240 ****       -19.2500   5.7500  14.0000 Du        
   4241 ****       -19.2500   5.7500  14.2500 Du        
   4242 ****       -19.2500   6.0000  13.7500 Du        
   4243 ****       -19.2500   6.0000  14.0000 Du        
   4244 ****       -19.2500   6.0000  14.2500 Du        
   4245 ****       -19.2500   6.2500  13.7500 Du        
   4246 ****       -19.2500   6.2500  14.0000 Du        
   4247 ****       -19.2500   6.2500  14.2500 Du        
   4248 ****       -19.2500   6.5000  13.7500 Du        
   4249 ****       -19.2500   6.5000  14.0000 Du        
   4250 ****       -19.2500   6.5000  14.2500 Du        
   4251 ****       -19.2500   6.7500  13.7500 Du        
   4252 ****       -19.2500   6.7500  14.0000 Du        
   4253 ****       -19.2500   6.7500  14.2500 Du        
   4254 ****       -19.2500   6.7500  14.5000 Du        
   4255 ****       -19.2500   7.0000  13.5000 Du        
   4256 ****       -19.2500   7.0000  13.7500 Du        
   4257 ****       -19.2500   7.0000  14.0000 Du        
   4258 ****       -19.2500   7.0000  14.2500 Du        
   4259 ****       -19.2500   7.0000  14.5000 Du        
   4260 ****       -19.2500   7.2500  13.5000 Du        
   4261 ****       -19.2500   7.2500  13.7500 Du        
   4262 ****       -19.2500   7.2500  14.0000 Du        
   4263 ****       -19.2500   7.2500  14.2500 Du        
   4264 ****       -19.2500   7.2500  14.5000 Du        
   4265 ****       -19.2500   7.2500  14.7500 Du        
   4266 ****       -19.2500   7.5000  13.5000 Du        
   4267 ****       -19.2500   7.5000  13.7500 Du        
   4268 ****       -19.2500   7.5000  14.0000 Du        
   4269 ****       -19.2500   7.5000  14.2500 Du        
   4270 ****       -19.2500   7.7500  13.5000 Du        
   4271 ****       -19.2500   7.7500  13.7500 Du        
   4272 ****       -19.2500   7.7500  14.0000 Du        
   4273 ****       -19.2500   7.7500  14.2500 Du        
   4274 ****       -19.2500   8.0000  14.0000 Du        
   4275 ****       -19.2500   8.0000  14.2500 Du        
   4276 ****       -19.0000   5.2500  14.0000 Du        
   4277 ****       -19.0000   5.5000  13.7500 Du        
   4278 ****       -19.0000   5.5000  14.0000 Du        
   4279 ****       -19.0000   5.7500  13.7500 Du        
   4280 ****       -19.0000   5.7500  14.0000 Du        
   4281 ****       -19.0000   5.7500  14.2500 Du        
   4282 ****       -19.0000   6.0000  13.7500 Du        
   4283 ****       -19.0000   6.0000  14.0000 Du        
   4284 ****       -19.0000   6.0000  14.2500 Du        
   4285 ****       -19.0000   6.2500  13.7500 Du        
   4286 ****       -19.0000   6.2500  14.0000 Du        
   4287 ****       -19.0000   6.2500  14.2500 Du        
   4288 ****       -19.0000   6.5000  13.7500 Du        
   4289 ****       -19.0000   6.5000  14.0000 Du        
   4290 ****       -19.0000   6.5000  14.2500 Du        
   4291 ****       -19.0000   6.7500  13.5000 Du        
   4292 ****       -19.0000   6.7500  13.7500 Du        
   4293 ****       -19.0000   6.7500  14.0000 Du        
   4294 ****       -19.0000   6.7500  14.2500 Du        
   4295 ****       -19.0000   6.7500  14.5000 Du        
   4296 ****       -19.0000   7.0000  13.5000 Du        
   4297 ****       -19.0000   7.0000  13.7500 Du        
   4298 ****       -19.0000   7.0000  14.0000 Du        
   4299 ****       -19.0000   7.0000  14.2500 Du        
   4300 ****       -19.0000   7.0000  14.5000 Du        
   4301 ****       -19.0000   7.2500  13.5000 Du        
   4302 ****       -19.0000   7.2500  13.7500 Du        
   4303 ****       -19.0000   7.2500  14.0000 Du        
   4304 ****       -19.0000   7.2500  14.2500 Du        
   4305 ****       -19.0000   7.2500  14.5000 Du        
   4306 ****       -19.0000   7.2500  14.7500 Du        
   4307 ****       -19.0000   7.5000  13.5000 Du        
   4308 ****       -19.0000   7.5000  13.7500 Du        
   4309 ****       -19.0000   7.5000  14.0000 Du        
   4310 ****       -19.0000   7.5000  14.2500 Du        
   4311 ****       -19.0000   7.7500  13.5000 Du        
   4312 ****       -19.0000   7.7500  13.7500 Du        
   4313 ****       -19.0000   7.7500  14.0000 Du        
   4314 ****       -19.0000   7.7500  14.2500 Du        
   4315 ****       -19.0000   8.0000  13.7500 Du        
   4316 ****       -19.0000   8.0000  14.0000 Du        
   4317 ****       -18.7500   5.5000  13.7500 Du        
   4318 ****       -18.7500   5.5000  14.0000 Du        
   4319 ****       -18.7500   5.7500  13.7500 Du        
   4320 ****       -18.7500   5.7500  14.0000 Du        
   4321 ****       -18.7500   5.7500  14.2500 Du        
   4322 ****       -18.7500   6.0000  13.7500 Du        
   4323 ****       -18.7500   6.0000  14.0000 Du        
   4324 ****       -18.7500   6.0000  14.2500 Du        
   4325 ****       -18.7500   6.2500  13.7500 Du        
   4326 ****       -18.7500   6.2500  14.0000 Du        
   4327 ****       -18.7500   6.2500  14.2500 Du        
   4328 ****       -18.7500   6.5000  13.7500 Du        
   4329 ****       -18.7500   6.5000  14.0000 Du        
   4330 ****       -18.7500   6.5000  14.2500 Du        
   4331 ****       -18.7500   6.7500  13.7500 Du        
   4332 ****       -18.7500   6.7500  14.0000 Du        
   4333 ****       -18.7500   6.7500  14.2500 Du        
   4334 ****       -18.7500   6.7500  14.5000 Du        
   4335 ****       -18.7500   7.0000  13.7500 Du        
   4336 ****       -18.7500   7.0000  14.0000 Du        
   4337 ****       -18.7500   7.0000  14.2500 Du        
   4338 ****       -18.7500   7.0000  14.5000 Du        
   4339 ****       -18.7500   7.2500  13.5000 Du        
   4340 ****       -18.7500   7.2500  13.7500 Du        
   4341 ****       -18.7500   7.2500  14.0000 Du        
   4342 ****       -18.7500   7.2500  14.2500 Du        
   4343 ****       -18.7500   7.2500  14.5000 Du        
   4344 ****       -18.7500   7.5000  13.7500 Du        
   4345 ****       -18.7500   7.5000  14.0000 Du        
   4346 ****       -18.7500   7.5000  14.2500 Du        
   4347 ****       -18.7500   7.7500  13.7500 Du        
   4348 ****       -18.7500   7.7500  14.0000 Du        
   4349 ****       -18.7500   7.7500  14.2500 Du        
   4350 ****       -18.5000 -13.7500  31.0000 Du        
   4351 ****       -18.5000 -13.7500  31.2500 Du        
   4352 ****       -18.5000 -13.5000  31.0000 Du        
   4353 ****       -18.5000 -13.5000  31.2500 Du        
   4354 ****       -18.5000 -13.2500  31.2500 Du        
   4355 ****       -18.5000   5.7500  13.7500 Du        
   4356 ****       -18.5000   5.7500  14.0000 Du        
   4357 ****       -18.5000   5.7500  14.2500 Du        
   4358 ****       -18.5000   6.0000  13.7500 Du        
   4359 ****       -18.5000   6.0000  14.0000 Du        
   4360 ****       -18.5000   6.0000  14.2500 Du        
   4361 ****       -18.5000   6.2500  13.7500 Du        
   4362 ****       -18.5000   6.2500  14.0000 Du        
   4363 ****       -18.5000   6.2500  14.2500 Du        
   4364 ****       -18.5000   6.5000  13.7500 Du        
   4365 ****       -18.5000   6.5000  14.0000 Du        
   4366 ****       -18.5000   6.5000  14.2500 Du        
   4367 ****       -18.5000   6.7500  13.7500 Du        
   4368 ****       -18.5000   6.7500  14.0000 Du        
   4369 ****       -18.5000   6.7500  14.2500 Du        
   4370 ****       -18.5000   7.0000  13.7500 Du        
   4371 ****       -18.5000   7.0000  14.0000 Du        
   4372 ****       -18.5000   7.0000  14.2500 Du        
   4373 ****       -18.5000   7.2500  13.7500 Du        
   4374 ****       -18.5000   7.2500  14.0000 Du        
   4375 ****       -18.5000   7.2500  14.2500 Du        
   4376 ****       -18.2500 -15.0000  29.7500 Du        
   4377 ****       -18.2500 -15.0000  30.0000 Du        
   4378 ****       -18.2500 -15.0000  30.2500 Du        
   4379 ****       -18.2500 -14.7500  29.7500 Du        
   4380 ****       -18.2500 -14.7500  30.0000 Du        
   4381 ****       -18.2500 -14.7500  30.2500 Du        
   4382 ****       -18.2500 -14.7500  30.5000 Du        
   4383 ****       -18.2500 -14.5000  30.0000 Du        
   4384 ****       -18.2500 -14.5000  30.2500 Du        
   4385 ****       -18.2500 -14.5000  30.5000 Du        
   4386 ****       -18.2500 -14.5000  30.7500 Du        
   4387 ****       -18.2500 -14.2500  30.2500 Du        
   4388 ****       -18.2500 -14.2500  30.5000 Du        
   4389 ****       -18.2500 -14.2500  30.7500 Du        
   4390 ****       -18.2500 -14.2500  31.0000 Du        
   4391 ****       -18.2500 -14.0000  30.2500 Du        
   4392 ****       -18.2500 -14.0000  30.5000 Du        
   4393 ****       -18.2500 -14.0000  30.7500 Du        
   4394 ****       -18.2500 -14.0000  31.0000 Du        
   4395 ****       -18.2500 -14.0000  31.2500 Du        
   4396 ****       -18.2500 -13.7500  30.5000 Du        
   4397 ****       -18.2500 -13.7500  30.7500 Du        
   4398 ****       -18.2500 -13.7500  31.0000 Du        
   4399 ****       -18.2500 -13.7500  31.2500 Du        
   4400 ****       -18.2500 -13.7500  31.5000 Du        
   4401 ****       -18.2500 -13.5000  30.5000 Du        
   4402 ****       -18.2500 -13.5000  30.7500 Du        
   4403 ****       -18.2500 -13.5000  31.0000 Du        
   4404 ****       -18.2500 -13.5000  31.2500 Du        
   4405 ****       -18.2500 -13.2500  30.7500 Du        
   4406 ****       -18.2500 -13.2500  31.0000 Du        
   4407 ****       -18.2500 -13.2500  31.2500 Du        
   4408 ****       -18.2500   5.7500  14.0000 Du        
   4409 ****       -18.2500   5.7500  14.2500 Du        
   4410 ****       -18.2500   6.0000  14.0000 Du        
   4411 ****       -18.2500   6.0000  14.2500 Du        
   4412 ****       -18.2500   6.2500  14.0000 Du        
   4413 ****       -18.2500   6.2500  14.2500 Du        
   4414 ****       -18.2500   6.5000  14.0000 Du        
   4415 ****       -18.2500   6.5000  14.2500 Du        
   4416 ****       -18.2500   6.7500  14.0000 Du        
   4417 ****       -18.2500   6.7500  14.2500 Du        
   4418 ****       -18.2500   6.7500  14.5000 Du        
   4419 ****       -18.2500   7.0000  14.0000 Du        
   4420 ****       -18.2500   7.0000  14.2500 Du        
   4421 ****       -18.2500   7.0000  14.5000 Du        
   4422 ****       -18.2500   7.2500  14.0000 Du        
   4423 ****       -18.2500   7.2500  14.2500 Du        
   4424 ****       -18.2500   7.2500  14.5000 Du        
   4425 ****       -18.0000 -15.0000  29.7500 Du        
   4426 ****       -18.0000 -15.0000  30.0000 Du        
   4427 ****       -18.0000 -15.0000  30.2500 Du        
   4428 ****       -18.0000 -15.0000  30.5000 Du        
   4429 ****       -18.0000 -14.7500  29.7500 Du        
   4430 ****       -18.0000 -14.7500  30.0000 Du        
   4431 ****       -18.0000 -14.7500  30.2500 Du        
   4432 ****       -18.0000 -14.7500  30.5000 Du        
   4433 ****       -18.0000 -14.7500  30.7500 Du        
   4434 ****       -18.0000 -14.5000  29.7500 Du        
   4435 ****       -18.0000 -14.5000  30.0000 Du        
   4436 ****       -18.0000 -14.5000  30.2500 Du        
   4437 ****       -18.0000 -14.5000  30.5000 Du        
   4438 ****       -18.0000 -14.5000  30.7500 Du        
   4439 ****       -18.0000 -14.5000  31.0000 Du        
   4440 ****       -18.0000 -14.2500  29.7500 Du        
   4441 ****       -18.0000 -14.2500  30.0000 Du        
   4442 ****       -18.0000 -14.2500  30.2500 Du        
   4443 ****       -18.0000 -14.2500  30.5000 Du        
   4444 ****       -18.0000 -14.2500  30.7500 Du        
   4445 ****       -18.0000 -14.2500  31.0000 Du        
   4446 ****       -18.0000 -14.2500  31.2500 Du        
   4447 ****       -18.0000 -14.0000  29.7500 Du        
   4448 ****       -18.0000 -14.0000  30.0000 Du        
   4449 ****       -18.0000 -14.0000  30.2500 Du        
   4450 ****       -18.0000 -14.0000  30.5000 Du        
   4451 ****       -18.0000 -14.0000  30.7500 Du        
   4452 ****       -18.0000 -14.0000  31.0000 Du        
   4453 ****       -18.0000 -14.0000  31.2500 Du        
   4454 ****       -18.0000 -13.7500  29.7500 Du        
   4455 ****       -18.0000 -13.7500  30.0000 Du        
   4456 ****       -18.0000 -13.7500  30.2500 Du        
   4457 ****       -18.0000 -13.7500  30.5000 Du        
   4458 ****       -18.0000 -13.7500  30.7500 Du        
   4459 ****       -18.0000 -13.7500  31.0000 Du        
   4460 ****       -18.0000 -13.7500  31.2500 Du        
   4461 ****       -18.0000 -13.7500  31.5000 Du        
   4462 ****       -18.0000 -13.5000  30.0000 Du        
   4463 ****       -18.0000 -13.5000  30.2500 Du        
   4464 ****       -18.0000 -13.5000  30.5000 Du        
   4465 ****       -18.0000 -13.5000  30.7500 Du        
   4466 ****       -18.0000 -13.5000  31.0000 Du        
   4467 ****       -18.0000 -13.5000  31.2500 Du        
   4468 ****       -18.0000 -13.5000  31.5000 Du        
   4469 ****       -18.0000 -13.2500  30.0000 Du        
   4470 ****       -18.0000 -13.2500  30.2500 Du        
   4471 ****       -18.0000 -13.2500  30.5000 Du        
   4472 ****       -18.0000 -13.2500  30.7500 Du        
   4473 ****       -18.0000 -13.2500  31.0000 Du        
   4474 ****       -18.0000 -13.2500  31.2500 Du        
   4475 ****       -18.0000 -13.2500  31.5000 Du        
   4476 ****       -18.0000 -13.0000  30.2500 Du        
   4477 ****       -18.0000 -13.0000  30.5000 Du        
   4478 ****       -18.0000 -13.0000  30.7500 Du        
   4479 ****       -18.0000 -13.0000  31.0000 Du        
   4480 ****       -18.0000 -13.0000  31.2500 Du        
   4481 ****       -18.0000   6.0000  14.0000 Du        
   4482 ****       -18.0000   6.0000  14.2500 Du        
   4483 ****       -18.0000   6.2500  14.0000 Du        
   4484 ****       -18.0000   6.2500  14.2500 Du        
   4485 ****       -18.0000   6.2500  14.5000 Du        
   4486 ****       -18.0000   6.5000  14.2500 Du        
   4487 ****       -18.0000   6.7500  14.2500 Du        
   4488 ****       -18.0000   6.7500  14.5000 Du        
   4489 ****       -18.0000   7.0000  14.2500 Du        
   4490 ****       -18.0000   7.0000  14.5000 Du        
   4491 ****       -18.0000   7.2500  14.2500 Du        
   4492 ****       -17.7500 -15.2500  30.0000 Du        
   4493 ****       -17.7500 -15.2500  30.2500 Du        
   4494 ****       -17.7500 -15.0000  29.7500 Du        
   4495 ****       -17.7500 -15.0000  30.0000 Du        
   4496 ****       -17.7500 -15.0000  30.2500 Du        
   4497 ****       -17.7500 -15.0000  30.5000 Du        
   4498 ****       -17.7500 -15.0000  30.7500 Du        
   4499 ****       -17.7500 -14.7500  29.7500 Du        
   4500 ****       -17.7500 -14.7500  30.0000 Du        
   4501 ****       -17.7500 -14.7500  30.2500 Du        
   4502 ****       -17.7500 -14.7500  30.5000 Du        
   4503 ****       -17.7500 -14.7500  30.7500 Du        
   4504 ****       -17.7500 -14.7500  31.0000 Du        
   4505 ****       -17.7500 -14.5000  29.5000 Du        
   4506 ****       -17.7500 -14.5000  29.7500 Du        
   4507 ****       -17.7500 -14.5000  30.0000 Du        
   4508 ****       -17.7500 -14.5000  30.2500 Du        
   4509 ****       -17.7500 -14.5000  30.5000 Du        
   4510 ****       -17.7500 -14.5000  30.7500 Du        
   4511 ****       -17.7500 -14.5000  31.0000 Du        
   4512 ****       -17.7500 -14.5000  31.2500 Du        
   4513 ****       -17.7500 -14.2500  29.5000 Du        
   4514 ****       -17.7500 -14.2500  29.7500 Du        
   4515 ****       -17.7500 -14.2500  30.0000 Du        
   4516 ****       -17.7500 -14.2500  30.2500 Du        
   4517 ****       -17.7500 -14.2500  30.5000 Du        
   4518 ****       -17.7500 -14.2500  30.7500 Du        
   4519 ****       -17.7500 -14.2500  31.0000 Du        
   4520 ****       -17.7500 -14.2500  31.2500 Du        
   4521 ****       -17.7500 -14.0000  29.5000 Du        
   4522 ****       -17.7500 -14.0000  29.7500 Du        
   4523 ****       -17.7500 -14.0000  30.0000 Du        
   4524 ****       -17.7500 -14.0000  30.2500 Du        
   4525 ****       -17.7500 -14.0000  30.5000 Du        
   4526 ****       -17.7500 -14.0000  30.7500 Du        
   4527 ****       -17.7500 -14.0000  31.0000 Du        
   4528 ****       -17.7500 -14.0000  31.2500 Du        
   4529 ****       -17.7500 -14.0000  31.5000 Du        
   4530 ****       -17.7500 -13.7500  29.5000 Du        
   4531 ****       -17.7500 -13.7500  29.7500 Du        
   4532 ****       -17.7500 -13.7500  30.0000 Du        
   4533 ****       -17.7500 -13.7500  30.2500 Du        
   4534 ****       -17.7500 -13.7500  30.5000 Du        
   4535 ****       -17.7500 -13.7500  30.7500 Du        
   4536 ****       -17.7500 -13.7500  31.0000 Du        
   4537 ****       -17.7500 -13.7500  31.2500 Du        
   4538 ****       -17.7500 -13.7500  31.5000 Du        
   4539 ****       -17.7500 -13.7500  31.7500 Du        
   4540 ****       -17.7500 -13.5000  29.5000 Du        
   4541 ****       -17.7500 -13.5000  29.7500 Du        
   4542 ****       -17.7500 -13.5000  30.0000 Du        
   4543 ****       -17.7500 -13.5000  30.2500 Du        
   4544 ****       -17.7500 -13.5000  30.5000 Du        
   4545 ****       -17.7500 -13.5000  30.7500 Du        
   4546 ****       -17.7500 -13.5000  31.0000 Du        
   4547 ****       -17.7500 -13.5000  31.2500 Du        
   4548 ****       -17.7500 -13.5000  31.5000 Du        
   4549 ****       -17.7500 -13.5000  31.7500 Du        
   4550 ****       -17.7500 -13.2500  29.5000 Du        
   4551 ****       -17.7500 -13.2500  29.7500 Du        
   4552 ****       -17.7500 -13.2500  30.0000 Du        
   4553 ****       -17.7500 -13.2500  30.2500 Du        
   4554 ****       -17.7500 -13.2500  30.5000 Du        
   4555 ****       -17.7500 -13.2500  30.7500 Du        
   4556 ****       -17.7500 -13.2500  31.0000 Du        
   4557 ****       -17.7500 -13.2500  31.2500 Du        
   4558 ****       -17.7500 -13.2500  31.5000 Du        
   4559 ****       -17.7500 -13.2500  31.7500 Du        
   4560 ****       -17.7500 -13.0000  30.0000 Du        
   4561 ****       -17.7500 -13.0000  30.2500 Du        
   4562 ****       -17.7500 -13.0000  30.5000 Du        
   4563 ****       -17.7500 -13.0000  30.7500 Du        
   4564 ****       -17.7500 -13.0000  31.0000 Du        
   4565 ****       -17.7500 -13.0000  31.2500 Du        
   4566 ****       -17.7500   6.0000  14.2500 Du        
   4567 ****       -17.7500   6.2500  14.2500 Du        
   4568 ****       -17.7500   6.2500  14.5000 Du        
   4569 ****       -17.7500   6.5000  14.2500 Du        
   4570 ****       -17.7500   6.7500  14.2500 Du        
   4571 ****       -17.7500   7.0000  14.2500 Du        
   4572 ****       -17.5000 -15.2500  30.2500 Du        
   4573 ****       -17.5000 -15.2500  30.5000 Du        
   4574 ****       -17.5000 -15.0000  30.0000 Du        
   4575 ****       -17.5000 -15.0000  30.2500 Du        
   4576 ****       -17.5000 -15.0000  30.5000 Du        
   4577 ****       -17.5000 -15.0000  30.7500 Du        
   4578 ****       -17.5000 -14.7500  29.7500 Du        
   4579 ****       -17.5000 -14.7500  30.0000 Du        
   4580 ****       -17.5000 -14.7500  30.2500 Du        
   4581 ****       -17.5000 -14.7500  30.5000 Du        
   4582 ****       -17.5000 -14.7500  30.7500 Du        
   4583 ****       -17.5000 -14.7500  31.0000 Du        
   4584 ****       -17.5000 -14.5000  29.7500 Du        
   4585 ****       -17.5000 -14.5000  30.0000 Du        
   4586 ****       -17.5000 -14.5000  30.2500 Du        
   4587 ****       -17.5000 -14.5000  30.5000 Du        
   4588 ****       -17.5000 -14.5000  30.7500 Du        
   4589 ****       -17.5000 -14.5000  31.0000 Du        
   4590 ****       -17.5000 -14.5000  31.2500 Du        
   4591 ****       -17.5000 -14.2500  29.7500 Du        
   4592 ****       -17.5000 -14.2500  30.0000 Du        
   4593 ****       -17.5000 -14.2500  30.2500 Du        
   4594 ****       -17.5000 -14.2500  30.5000 Du        
   4595 ****       -17.5000 -14.2500  30.7500 Du        
   4596 ****       -17.5000 -14.2500  31.0000 Du        
   4597 ****       -17.5000 -14.2500  31.2500 Du        
   4598 ****       -17.5000 -14.2500  31.5000 Du        
   4599 ****       -17.5000 -14.0000  29.5000 Du        
   4600 ****       -17.5000 -14.0000  29.7500 Du        
   4601 ****       -17.5000 -14.0000  30.0000 Du        
   4602 ****       -17.5000 -14.0000  30.2500 Du        
   4603 ****       -17.5000 -14.0000  30.5000 Du        
   4604 ****       -17.5000 -14.0000  30.7500 Du        
   4605 ****       -17.5000 -14.0000  31.0000 Du        
   4606 ****       -17.5000 -14.0000  31.2500 Du        
   4607 ****       -17.5000 -14.0000  31.5000 Du        
   4608 ****       -17.5000 -14.0000  31.7500 Du        
   4609 ****       -17.5000 -13.7500  29.5000 Du        
   4610 ****       -17.5000 -13.7500  29.7500 Du        
   4611 ****       -17.5000 -13.7500  30.0000 Du        
   4612 ****       -17.5000 -13.7500  30.2500 Du        
   4613 ****       -17.5000 -13.7500  30.5000 Du        
   4614 ****       -17.5000 -13.7500  30.7500 Du        
   4615 ****       -17.5000 -13.7500  31.0000 Du        
   4616 ****       -17.5000 -13.7500  31.2500 Du        
   4617 ****       -17.5000 -13.7500  31.5000 Du        
   4618 ****       -17.5000 -13.7500  31.7500 Du        
   4619 ****       -17.5000 -13.5000  29.5000 Du        
   4620 ****       -17.5000 -13.5000  29.7500 Du        
   4621 ****       -17.5000 -13.5000  30.0000 Du        
   4622 ****       -17.5000 -13.5000  30.2500 Du        
   4623 ****       -17.5000 -13.5000  30.5000 Du        
   4624 ****       -17.5000 -13.5000  30.7500 Du        
   4625 ****       -17.5000 -13.5000  31.0000 Du        
   4626 ****       -17.5000 -13.5000  31.2500 Du        
   4627 ****       -17.5000 -13.5000  31.5000 Du        
   4628 ****       -17.5000 -13.5000  31.7500 Du        
   4629 ****       -17.5000 -13.2500  29.5000 Du        
   4630 ****       -17.5000 -13.2500  29.7500 Du        
   4631 ****       -17.5000 -13.2500  30.0000 Du        
   4632 ****       -17.5000 -13.2500  30.2500 Du        
   4633 ****       -17.5000 -13.2500  30.5000 Du        
   4634 ****       -17.5000 -13.2500  30.7500 Du        
   4635 ****       -17.5000 -13.2500  31.0000 Du        
   4636 ****       -17.5000 -13.2500  31.2500 Du        
   4637 ****       -17.5000 -13.2500  31.5000 Du        
   4638 ****       -17.5000 -13.2500  31.7500 Du        
   4639 ****       -17.5000 -13.2500  32.0000 Du        
   4640 ****       -17.5000 -13.0000  30.0000 Du        
   4641 ****       -17.5000 -13.0000  30.2500 Du        
   4642 ****       -17.5000 -13.0000  30.5000 Du        
   4643 ****       -17.5000 -13.0000  30.7500 Du        
   4644 ****       -17.5000 -13.0000  31.0000 Du        
   4645 ****       -17.5000 -13.0000  31.2500 Du        
   4646 ****       -17.5000 -13.0000  31.5000 Du        
   4647 ****       -17.5000   6.2500  14.5000 Du        
   4648 ****       -17.5000   6.2500  14.7500 Du        
   4649 ****       -17.2500 -15.2500  30.2500 Du        
   4650 ****       -17.2500 -15.2500  30.5000 Du        
   4651 ****       -17.2500 -15.2500  30.7500 Du        
   4652 ****       -17.2500 -15.0000  30.0000 Du        
   4653 ****       -17.2500 -15.0000  30.2500 Du        
   4654 ****       -17.2500 -15.0000  30.5000 Du        
   4655 ****       -17.2500 -15.0000  30.7500 Du        
   4656 ****       -17.2500 -15.0000  31.0000 Du        
   4657 ****       -17.2500 -14.7500  29.7500 Du        
   4658 ****       -17.2500 -14.7500  30.0000 Du        
   4659 ****       -17.2500 -14.7500  30.2500 Du        
   4660 ****       -17.2500 -14.7500  30.5000 Du        
   4661 ****       -17.2500 -14.7500  30.7500 Du        
   4662 ****       -17.2500 -14.7500  31.0000 Du        
   4663 ****       -17.2500 -14.7500  31.2500 Du        
   4664 ****       -17.2500 -14.5000  29.7500 Du        
   4665 ****       -17.2500 -14.5000  30.0000 Du        
   4666 ****       -17.2500 -14.5000  30.2500 Du        
   4667 ****       -17.2500 -14.5000  30.5000 Du        
   4668 ****       -17.2500 -14.5000  30.7500 Du        
   4669 ****       -17.2500 -14.5000  31.0000 Du        
   4670 ****       -17.2500 -14.5000  31.2500 Du        
   4671 ****       -17.2500 -14.2500  29.7500 Du        
   4672 ****       -17.2500 -14.2500  30.0000 Du        
   4673 ****       -17.2500 -14.2500  30.2500 Du        
   4674 ****       -17.2500 -14.2500  30.5000 Du        
   4675 ****       -17.2500 -14.2500  30.7500 Du        
   4676 ****       -17.2500 -14.2500  31.0000 Du        
   4677 ****       -17.2500 -14.2500  31.2500 Du        
   4678 ****       -17.2500 -14.2500  31.5000 Du        
   4679 ****       -17.2500 -14.0000  29.7500 Du        
   4680 ****       -17.2500 -14.0000  30.0000 Du        
   4681 ****       -17.2500 -14.0000  30.2500 Du        
   4682 ****       -17.2500 -14.0000  30.5000 Du        
   4683 ****       -17.2500 -14.0000  30.7500 Du        
   4684 ****       -17.2500 -14.0000  31.0000 Du        
   4685 ****       -17.2500 -14.0000  31.2500 Du        
   4686 ****       -17.2500 -14.0000  31.5000 Du        
   4687 ****       -17.2500 -14.0000  31.7500 Du        
   4688 ****       -17.2500 -13.7500  29.5000 Du        
   4689 ****       -17.2500 -13.7500  29.7500 Du        
   4690 ****       -17.2500 -13.7500  30.0000 Du        
   4691 ****       -17.2500 -13.7500  30.2500 Du        
   4692 ****       -17.2500 -13.7500  30.5000 Du        
   4693 ****       -17.2500 -13.7500  30.7500 Du        
   4694 ****       -17.2500 -13.7500  31.0000 Du        
   4695 ****       -17.2500 -13.7500  31.2500 Du        
   4696 ****       -17.2500 -13.7500  31.5000 Du        
   4697 ****       -17.2500 -13.7500  31.7500 Du        
   4698 ****       -17.2500 -13.5000  29.5000 Du        
   4699 ****       -17.2500 -13.5000  29.7500 Du        
   4700 ****       -17.2500 -13.5000  30.0000 Du        
   4701 ****       -17.2500 -13.5000  30.2500 Du        
   4702 ****       -17.2500 -13.5000  30.5000 Du        
   4703 ****       -17.2500 -13.5000  30.7500 Du        
   4704 ****       -17.2500 -13.5000  31.0000 Du        
   4705 ****       -17.2500 -13.5000  31.2500 Du        
   4706 ****       -17.2500 -13.5000  31.5000 Du        
   4707 ****       -17.2500 -13.5000  31.7500 Du        
   4708 ****       -17.2500 -13.2500  29.7500 Du        
   4709 ****       -17.2500 -13.2500  30.0000 Du        
   4710 ****       -17.2500 -13.2500  30.2500 Du        
   4711 ****       -17.2500 -13.2500  30.5000 Du        
   4712 ****       -17.2500 -13.2500  30.7500 Du        
   4713 ****       -17.2500 -13.2500  31.0000 Du        
   4714 ****       -17.2500 -13.2500  31.2500 Du        
   4715 ****       -17.2500 -13.2500  31.5000 Du        
   4716 ****       -17.2500 -13.2500  31.7500 Du        
   4717 ****       -17.2500 -13.2500  32.0000 Du        
   4718 ****       -17.2500 -13.0000  30.2500 Du        
   4719 ****       -17.2500 -13.0000  30.5000 Du        
   4720 ****       -17.2500 -13.0000  30.7500 Du        
   4721 ****       -17.2500 -13.0000  31.0000 Du        
   4722 ****       -17.2500 -13.0000  31.2500 Du        
   4723 ****       -17.2500 -13.0000  31.5000 Du        
   4724 ****       -17.2500 -13.0000  31.7500 Du        
   4725 ****       -17.2500 -13.0000  32.0000 Du        
   4726 ****       -17.2500   4.0000  29.0000 Du        
   4727 ****       -17.2500   6.0000  14.7500 Du        
   4728 ****       -17.2500   6.2500  14.5000 Du        
   4729 ****       -17.2500   6.2500  14.7500 Du        
   4730 ****       -17.2500   6.2500  15.0000 Du        
   4731 ****       -17.0000 -15.5000  30.5000 Du        
   4732 ****       -17.0000 -15.5000  30.7500 Du        
   4733 ****       -17.0000 -15.2500  30.2500 Du        
   4734 ****       -17.0000 -15.2500  30.5000 Du        
   4735 ****       -17.0000 -15.2500  30.7500 Du        
   4736 ****       -17.0000 -15.2500  31.0000 Du        
   4737 ****       -17.0000 -15.0000  30.0000 Du        
   4738 ****       -17.0000 -15.0000  30.2500 Du        
   4739 ****       -17.0000 -15.0000  30.5000 Du        
   4740 ****       -17.0000 -15.0000  30.7500 Du        
   4741 ****       -17.0000 -15.0000  31.0000 Du        
   4742 ****       -17.0000 -15.0000  31.2500 Du        
   4743 ****       -17.0000 -14.7500  30.0000 Du        
   4744 ****       -17.0000 -14.7500  30.2500 Du        
   4745 ****       -17.0000 -14.7500  30.5000 Du        
   4746 ****       -17.0000 -14.7500  30.7500 Du        
   4747 ****       -17.0000 -14.7500  31.0000 Du        
   4748 ****       -17.0000 -14.7500  31.2500 Du        
   4749 ****       -17.0000 -14.5000  30.0000 Du        
   4750 ****       -17.0000 -14.5000  30.2500 Du        
   4751 ****       -17.0000 -14.5000  30.5000 Du        
   4752 ****       -17.0000 -14.5000  30.7500 Du        
   4753 ****       -17.0000 -14.5000  31.0000 Du        
   4754 ****       -17.0000 -14.5000  31.2500 Du        
   4755 ****       -17.0000 -14.2500  29.7500 Du        
   4756 ****       -17.0000 -14.2500  30.0000 Du        
   4757 ****       -17.0000 -14.2500  30.2500 Du        
   4758 ****       -17.0000 -14.2500  30.5000 Du        
   4759 ****       -17.0000 -14.2500  30.7500 Du        
   4760 ****       -17.0000 -14.2500  31.0000 Du        
   4761 ****       -17.0000 -14.2500  31.2500 Du        
   4762 ****       -17.0000 -14.2500  31.5000 Du        
   4763 ****       -17.0000 -14.0000  29.7500 Du        
   4764 ****       -17.0000 -14.0000  30.0000 Du        
   4765 ****       -17.0000 -14.0000  30.2500 Du        
   4766 ****       -17.0000 -14.0000  30.5000 Du        
   4767 ****       -17.0000 -14.0000  30.7500 Du        
   4768 ****       -17.0000 -14.0000  31.0000 Du        
   4769 ****       -17.0000 -14.0000  31.2500 Du        
   4770 ****       -17.0000 -14.0000  31.5000 Du        
   4771 ****       -17.0000 -14.0000  31.7500 Du        
   4772 ****       -17.0000 -13.7500  29.7500 Du        
   4773 ****       -17.0000 -13.7500  30.0000 Du        
   4774 ****       -17.0000 -13.7500  30.2500 Du        
   4775 ****       -17.0000 -13.7500  30.5000 Du        
   4776 ****       -17.0000 -13.7500  30.7500 Du        
   4777 ****       -17.0000 -13.7500  31.0000 Du        
   4778 ****       -17.0000 -13.7500  31.2500 Du        
   4779 ****       -17.0000 -13.7500  31.5000 Du        
   4780 ****       -17.0000 -13.7500  31.7500 Du        
   4781 ****       -17.0000 -13.5000  29.7500 Du        
   4782 ****       -17.0000 -13.5000  30.0000 Du        
   4783 ****       -17.0000 -13.5000  30.2500 Du        
   4784 ****       -17.0000 -13.5000  30.5000 Du        
   4785 ****       -17.0000 -13.5000  30.7500 Du        
   4786 ****       -17.0000 -13.5000  31.0000 Du        
   4787 ****       -17.0000 -13.5000  31.2500 Du        
   4788 ****       -17.0000 -13.5000  31.5000 Du        
   4789 ****       -17.0000 -13.5000  31.7500 Du        
   4790 ****       -17.0000 -13.2500  29.7500 Du        
   4791 ****       -17.0000 -13.2500  30.0000 Du        
   4792 ****       -17.0000 -13.2500  30.2500 Du        
   4793 ****       -17.0000 -13.2500  30.5000 Du        
   4794 ****       -17.0000 -13.2500  30.7500 Du        
   4795 ****       -17.0000 -13.2500  31.0000 Du        
   4796 ****       -17.0000 -13.2500  31.2500 Du        
   4797 ****       -17.0000 -13.2500  31.5000 Du        
   4798 ****       -17.0000 -13.2500  31.7500 Du        
   4799 ****       -17.0000 -13.0000  30.7500 Du        
   4800 ****       -17.0000 -13.0000  31.0000 Du        
   4801 ****       -17.0000 -13.0000  31.2500 Du        
   4802 ****       -17.0000 -13.0000  31.5000 Du        
   4803 ****       -17.0000 -13.0000  31.7500 Du        
   4804 ****       -17.0000 -13.0000  32.0000 Du        
   4805 ****       -17.0000   3.7500  28.7500 Du        
   4806 ****       -17.0000   3.7500  29.0000 Du        
   4807 ****       -17.0000   4.0000  29.0000 Du        
   4808 ****       -17.0000   6.0000  14.7500 Du        
   4809 ****       -17.0000   6.0000  15.0000 Du        
   4810 ****       -17.0000   6.2500  14.7500 Du        
   4811 ****       -17.0000   6.2500  15.0000 Du        
   4812 ****       -17.0000   6.2500  15.2500 Du        
   4813 ****       -16.7500 -21.2500  32.0000 Du        
   4814 ****       -16.7500 -21.2500  32.2500 Du        
   4815 ****       -16.7500 -21.0000  32.2500 Du        
   4816 ****       -16.7500 -15.5000  30.2500 Du        
   4817 ****       -16.7500 -15.5000  30.5000 Du        
   4818 ****       -16.7500 -15.5000  30.7500 Du        
   4819 ****       -16.7500 -15.5000  31.0000 Du        
   4820 ****       -16.7500 -15.2500  30.2500 Du        
   4821 ****       -16.7500 -15.2500  30.5000 Du        
   4822 ****       -16.7500 -15.2500  30.7500 Du        
   4823 ****       -16.7500 -15.2500  31.0000 Du        
   4824 ****       -16.7500 -15.2500  31.2500 Du        
   4825 ****       -16.7500 -15.0000  30.0000 Du        
   4826 ****       -16.7500 -15.0000  30.2500 Du        
   4827 ****       -16.7500 -15.0000  30.5000 Du        
   4828 ****       -16.7500 -15.0000  30.7500 Du        
   4829 ****       -16.7500 -15.0000  31.0000 Du        
   4830 ****       -16.7500 -15.0000  31.2500 Du        
   4831 ****       -16.7500 -14.7500  30.0000 Du        
   4832 ****       -16.7500 -14.7500  30.2500 Du        
   4833 ****       -16.7500 -14.7500  30.5000 Du        
   4834 ****       -16.7500 -14.7500  30.7500 Du        
   4835 ****       -16.7500 -14.7500  31.0000 Du        
   4836 ****       -16.7500 -14.7500  31.2500 Du        
   4837 ****       -16.7500 -14.5000  30.0000 Du        
   4838 ****       -16.7500 -14.5000  30.2500 Du        
   4839 ****       -16.7500 -14.5000  30.5000 Du        
   4840 ****       -16.7500 -14.5000  30.7500 Du        
   4841 ****       -16.7500 -14.5000  31.0000 Du        
   4842 ****       -16.7500 -14.5000  31.2500 Du        
   4843 ****       -16.7500 -14.2500  30.0000 Du        
   4844 ****       -16.7500 -14.2500  30.2500 Du        
   4845 ****       -16.7500 -14.2500  30.5000 Du        
   4846 ****       -16.7500 -14.2500  30.7500 Du        
   4847 ****       -16.7500 -14.2500  31.0000 Du        
   4848 ****       -16.7500 -14.2500  31.2500 Du        
   4849 ****       -16.7500 -14.0000  30.0000 Du        
   4850 ****       -16.7500 -14.0000  30.2500 Du        
   4851 ****       -16.7500 -14.0000  30.5000 Du        
   4852 ****       -16.7500 -14.0000  30.7500 Du        
   4853 ****       -16.7500 -14.0000  31.0000 Du        
   4854 ****       -16.7500 -14.0000  31.2500 Du        
   4855 ****       -16.7500 -14.0000  31.5000 Du        
   4856 ****       -16.7500 -13.7500  29.7500 Du        
   4857 ****       -16.7500 -13.7500  30.0000 Du        
   4858 ****       -16.7500 -13.7500  30.2500 Du        
   4859 ****       -16.7500 -13.7500  30.5000 Du        
   4860 ****       -16.7500 -13.7500  30.7500 Du        
   4861 ****       -16.7500 -13.7500  31.0000 Du        
   4862 ****       -16.7500 -13.7500  31.2500 Du        
   4863 ****       -16.7500 -13.7500  31.5000 Du        
   4864 ****       -16.7500 -13.7500  31.7500 Du        
   4865 ****       -16.7500 -13.5000  29.7500 Du        
   4866 ****       -16.7500 -13.5000  30.0000 Du        
   4867 ****       -16.7500 -13.5000  30.2500 Du        
   4868 ****       -16.7500 -13.5000  30.5000 Du        
   4869 ****       -16.7500 -13.5000  30.7500 Du        
   4870 ****       -16.7500 -13.5000  31.0000 Du        
   4871 ****       -16.7500 -13.5000  31.2500 Du        
   4872 ****       -16.7500 -13.5000  31.5000 Du        
   4873 ****       -16.7500 -13.2500  30.0000 Du        
   4874 ****       -16.7500 -13.2500  30.2500 Du        
   4875 ****       -16.7500 -13.2500  30.5000 Du        
   4876 ****       -16.7500 -13.2500  30.7500 Du        
   4877 ****       -16.7500 -13.2500  31.0000 Du        
   4878 ****       -16.7500 -13.2500  31.2500 Du        
   4879 ****       -16.7500 -13.2500  31.5000 Du        
   4880 ****       -16.7500 -13.0000  30.7500 Du        
   4881 ****       -16.7500 -13.0000  31.0000 Du        
   4882 ****       -16.7500 -13.0000  31.2500 Du        
   4883 ****       -16.7500 -13.0000  31.5000 Du        
   4884 ****       -16.7500 -13.0000  31.7500 Du        
   4885 ****       -16.7500   3.5000  28.7500 Du        
   4886 ****       -16.7500   3.5000  29.0000 Du        
   4887 ****       -16.7500   3.7500  28.7500 Du        
   4888 ****       -16.7500   3.7500  29.0000 Du        
   4889 ****       -16.7500   4.0000  28.7500 Du        
   4890 ****       -16.7500   5.7500  15.0000 Du        
   4891 ****       -16.7500   6.0000  14.7500 Du        
   4892 ****       -16.7500   6.0000  15.0000 Du        
   4893 ****       -16.7500   6.0000  15.2500 Du        
   4894 ****       -16.7500   6.2500  14.7500 Du        
   4895 ****       -16.7500   6.2500  15.0000 Du        
   4896 ****       -16.7500   6.2500  15.2500 Du        
   4897 ****       -16.7500   6.5000  15.0000 Du        
   4898 ****       -16.5000 -21.5000  32.0000 Du        
   4899 ****       -16.5000 -21.5000  32.2500 Du        
   4900 ****       -16.5000 -21.2500  31.7500 Du        
   4901 ****       -16.5000 -21.2500  32.0000 Du        
   4902 ****       -16.5000 -21.2500  32.2500 Du        
   4903 ****       -16.5000 -21.0000  31.7500 Du        
   4904 ****       -16.5000 -21.0000  32.0000 Du        
   4905 ****       -16.5000 -21.0000  32.2500 Du        
   4906 ****       -16.5000 -20.7500  32.0000 Du        
   4907 ****       -16.5000 -20.7500  32.2500 Du        
   4908 ****       -16.5000 -15.5000  30.5000 Du        
   4909 ****       -16.5000 -15.5000  30.7500 Du        
   4910 ****       -16.5000 -15.5000  31.0000 Du        
   4911 ****       -16.5000 -15.2500  30.2500 Du        
   4912 ****       -16.5000 -15.2500  30.5000 Du        
   4913 ****       -16.5000 -15.2500  30.7500 Du        
   4914 ****       -16.5000 -15.2500  31.0000 Du        
   4915 ****       -16.5000 -15.0000  30.2500 Du        
   4916 ****       -16.5000 -15.0000  30.5000 Du        
   4917 ****       -16.5000 -15.0000  30.7500 Du        
   4918 ****       -16.5000 -15.0000  31.0000 Du        
   4919 ****       -16.5000 -14.7500  30.2500 Du        
   4920 ****       -16.5000 -14.7500  30.5000 Du        
   4921 ****       -16.5000 -14.7500  30.7500 Du        
   4922 ****       -16.5000 -14.7500  31.0000 Du        
   4923 ****       -16.5000 -14.7500  31.2500 Du        
   4924 ****       -16.5000 -14.5000  30.2500 Du        
   4925 ****       -16.5000 -14.5000  30.5000 Du        
   4926 ****       -16.5000 -14.5000  30.7500 Du        
   4927 ****       -16.5000 -14.5000  31.0000 Du        
   4928 ****       -16.5000 -14.2500  30.0000 Du        
   4929 ****       -16.5000 -14.2500  30.2500 Du        
   4930 ****       -16.5000 -14.2500  30.5000 Du        
   4931 ****       -16.5000 -14.2500  30.7500 Du        
   4932 ****       -16.5000 -14.2500  31.0000 Du        
   4933 ****       -16.5000 -14.2500  31.2500 Du        
   4934 ****       -16.5000 -14.0000  30.0000 Du        
   4935 ****       -16.5000 -14.0000  30.2500 Du        
   4936 ****       -16.5000 -14.0000  30.5000 Du        
   4937 ****       -16.5000 -14.0000  30.7500 Du        
   4938 ****       -16.5000 -14.0000  31.0000 Du        
   4939 ****       -16.5000 -14.0000  31.2500 Du        
   4940 ****       -16.5000 -13.7500  30.0000 Du        
   4941 ****       -16.5000 -13.7500  30.2500 Du        
   4942 ****       -16.5000 -13.7500  30.5000 Du        
   4943 ****       -16.5000 -13.7500  30.7500 Du        
   4944 ****       -16.5000 -13.7500  31.0000 Du        
   4945 ****       -16.5000 -13.7500  31.2500 Du        
   4946 ****       -16.5000 -13.5000  30.0000 Du        
   4947 ****       -16.5000 -13.5000  30.2500 Du        
   4948 ****       -16.5000 -13.5000  30.5000 Du        
   4949 ****       -16.5000 -13.5000  30.7500 Du        
   4950 ****       -16.5000 -13.5000  31.0000 Du        
   4951 ****       -16.5000 -13.5000  31.2500 Du        
   4952 ****       -16.5000 -13.2500  30.2500 Du        
   4953 ****       -16.5000 -13.2500  30.5000 Du        
   4954 ****       -16.5000 -13.2500  30.7500 Du        
   4955 ****       -16.5000 -13.2500  31.0000 Du        
   4956 ****       -16.5000 -13.2500  31.2500 Du        
   4957 ****       -16.5000   3.2500  28.2500 Du        
   4958 ****       -16.5000   3.2500  28.5000 Du        
   4959 ****       -16.5000   3.2500  28.7500 Du        
   4960 ****       -16.5000   3.2500  29.0000 Du        
   4961 ****       -16.5000   5.7500  14.7500 Du        
   4962 ****       -16.5000   5.7500  15.0000 Du        
   4963 ****       -16.5000   5.7500  15.2500 Du        
   4964 ****       -16.5000   6.0000  14.7500 Du        
   4965 ****       -16.5000   6.0000  15.0000 Du        
   4966 ****       -16.5000   6.0000  15.2500 Du        
   4967 ****       -16.5000   6.2500  14.7500 Du        
   4968 ****       -16.5000   6.2500  15.0000 Du        
   4969 ****       -16.5000   6.2500  15.2500 Du        
   4970 ****       -16.2500 -22.0000  32.2500 Du        
   4971 ****       -16.2500 -21.7500  32.0000 Du        
   4972 ****       -16.2500 -21.7500  32.2500 Du        
   4973 ****       -16.2500 -21.5000  31.7500 Du        
   4974 ****       -16.2500 -21.5000  32.0000 Du        
   4975 ****       -16.2500 -21.5000  32.2500 Du        
   4976 ****       -16.2500 -21.2500  31.5000 Du        
   4977 ****       -16.2500 -21.2500  31.7500 Du        
   4978 ****       -16.2500 -21.2500  32.0000 Du        
   4979 ****       -16.2500 -21.2500  32.2500 Du        
   4980 ****       -16.2500 -21.0000  31.5000 Du        
   4981 ****       -16.2500 -21.0000  31.7500 Du        
   4982 ****       -16.2500 -21.0000  32.0000 Du        
   4983 ****       -16.2500 -21.0000  32.2500 Du        
   4984 ****       -16.2500 -20.7500  31.5000 Du        
   4985 ****       -16.2500 -20.7500  31.7500 Du        
   4986 ****       -16.2500 -20.7500  32.0000 Du        
   4987 ****       -16.2500 -20.7500  32.2500 Du        
   4988 ****       -16.2500 -20.5000  31.7500 Du        
   4989 ****       -16.2500 -20.5000  32.0000 Du        
   4990 ****       -16.2500 -20.5000  32.2500 Du        
   4991 ****       -16.2500 -15.7500  30.7500 Du        
   4992 ****       -16.2500 -15.7500  31.0000 Du        
   4993 ****       -16.2500 -15.5000  30.5000 Du        
   4994 ****       -16.2500 -15.5000  30.7500 Du        
   4995 ****       -16.2500 -15.5000  31.0000 Du        
   4996 ****       -16.2500 -15.2500  30.2500 Du        
   4997 ****       -16.2500 -15.2500  30.5000 Du        
   4998 ****       -16.2500 -15.2500  30.7500 Du        
   4999 ****       -16.2500 -15.2500  31.0000 Du        
   5000 ****       -16.2500 -15.0000  30.2500 Du        
   5001 ****       -16.2500 -15.0000  30.5000 Du        
   5002 ****       -16.2500 -15.0000  30.7500 Du        
   5003 ****       -16.2500 -15.0000  31.0000 Du        
   5004 ****       -16.2500 -14.7500  30.2500 Du        
   5005 ****       -16.2500 -14.7500  30.5000 Du        
   5006 ****       -16.2500 -14.7500  30.7500 Du        
   5007 ****       -16.2500 -14.7500  31.0000 Du        
   5008 ****       -16.2500 -14.5000  30.2500 Du        
   5009 ****       -16.2500 -14.5000  30.5000 Du        
   5010 ****       -16.2500 -14.5000  30.7500 Du        
   5011 ****       -16.2500 -14.5000  31.0000 Du        
   5012 ****       -16.2500 -14.2500  30.2500 Du        
   5013 ****       -16.2500 -14.2500  30.5000 Du        
   5014 ****       -16.2500 -14.2500  30.7500 Du        
   5015 ****       -16.2500 -14.2500  31.0000 Du        
   5016 ****       -16.2500 -14.0000  30.0000 Du        
   5017 ****       -16.2500 -14.0000  30.2500 Du        
   5018 ****       -16.2500 -14.0000  30.5000 Du        
   5019 ****       -16.2500 -14.0000  30.7500 Du        
   5020 ****       -16.2500 -14.0000  31.0000 Du        
   5021 ****       -16.2500 -13.7500  30.0000 Du        
   5022 ****       -16.2500 -13.7500  30.2500 Du        
   5023 ****       -16.2500 -13.7500  30.5000 Du        
   5024 ****       -16.2500 -13.7500  30.7500 Du        
   5025 ****       -16.2500 -13.7500  31.0000 Du        
   5026 ****       -16.2500 -13.5000  30.0000 Du        
   5027 ****       -16.2500 -13.5000  30.2500 Du        
   5028 ****       -16.2500 -13.5000  30.5000 Du        
   5029 ****       -16.2500 -13.5000  30.7500 Du        
   5030 ****       -16.2500 -13.5000  31.0000 Du        
   5031 ****       -16.2500 -13.2500  30.2500 Du        
   5032 ****       -16.2500 -13.2500  30.5000 Du        
   5033 ****       -16.2500 -13.2500  30.7500 Du        
   5034 ****       -16.2500 -13.2500  31.0000 Du        
   5035 ****       -16.2500   3.0000  28.2500 Du        
   5036 ****       -16.2500   3.0000  28.5000 Du        
   5037 ****       -16.2500   3.0000  28.7500 Du        
   5038 ****       -16.2500   3.2500  28.0000 Du        
   5039 ****       -16.2500   3.2500  28.2500 Du        
   5040 ****       -16.2500   3.2500  28.5000 Du        
   5041 ****       -16.2500   3.2500  28.7500 Du        
   5042 ****       -16.2500   5.5000  14.7500 Du        
   5043 ****       -16.2500   5.5000  15.0000 Du        
   5044 ****       -16.2500   5.5000  15.2500 Du        
   5045 ****       -16.2500   5.7500  14.5000 Du        
   5046 ****       -16.2500   5.7500  14.7500 Du        
   5047 ****       -16.2500   5.7500  15.0000 Du        
   5048 ****       -16.2500   5.7500  15.2500 Du        
   5049 ****       -16.2500   5.7500  15.5000 Du        
   5050 ****       -16.2500   6.0000  14.5000 Du        
   5051 ****       -16.2500   6.0000  14.7500 Du        
   5052 ****       -16.2500   6.0000  15.0000 Du        
   5053 ****       -16.2500   6.0000  15.2500 Du        
   5054 ****       -16.2500   6.0000  15.5000 Du        
   5055 ****       -16.2500   6.0000  15.7500 Du        
   5056 ****       -16.2500   6.2500  14.7500 Du        
   5057 ****       -16.2500   6.2500  15.0000 Du        
   5058 ****       -16.2500   6.2500  15.2500 Du        
   5059 ****       -16.2500   6.2500  15.5000 Du        
   5060 ****       -16.0000 -23.7500  33.2500 Du        
   5061 ****       -16.0000 -21.7500  32.0000 Du        
   5062 ****       -16.0000 -21.7500  32.2500 Du        
   5063 ****       -16.0000 -21.5000  31.7500 Du        
   5064 ****       -16.0000 -21.5000  32.0000 Du        
   5065 ****       -16.0000 -21.5000  32.2500 Du        
   5066 ****       -16.0000 -21.2500  31.2500 Du        
   5067 ****       -16.0000 -21.2500  31.5000 Du        
   5068 ****       -16.0000 -21.2500  31.7500 Du        
   5069 ****       -16.0000 -21.2500  32.0000 Du        
   5070 ****       -16.0000 -21.2500  32.2500 Du        
   5071 ****       -16.0000 -21.0000  31.2500 Du        
   5072 ****       -16.0000 -21.0000  31.5000 Du        
   5073 ****       -16.0000 -21.0000  31.7500 Du        
   5074 ****       -16.0000 -21.0000  32.0000 Du        
   5075 ****       -16.0000 -21.0000  32.2500 Du        
   5076 ****       -16.0000 -20.7500  31.2500 Du        
   5077 ****       -16.0000 -20.7500  31.5000 Du        
   5078 ****       -16.0000 -20.7500  31.7500 Du        
   5079 ****       -16.0000 -20.7500  32.0000 Du        
   5080 ****       -16.0000 -20.7500  32.2500 Du        
   5081 ****       -16.0000 -20.5000  31.2500 Du        
   5082 ****       -16.0000 -20.5000  31.5000 Du        
   5083 ****       -16.0000 -20.5000  31.7500 Du        
   5084 ****       -16.0000 -20.5000  32.0000 Du        
   5085 ****       -16.0000 -20.5000  32.2500 Du        
   5086 ****       -16.0000 -20.2500  31.5000 Du        
   5087 ****       -16.0000 -20.2500  31.7500 Du        
   5088 ****       -16.0000 -20.2500  32.0000 Du        
   5089 ****       -16.0000 -20.2500  32.2500 Du        
   5090 ****       -16.0000 -20.0000  31.7500 Du        
   5091 ****       -16.0000 -20.0000  32.0000 Du        
   5092 ****       -16.0000 -15.7500  31.0000 Du        
   5093 ****       -16.0000 -15.5000  30.5000 Du        
   5094 ****       -16.0000 -15.5000  30.7500 Du        
   5095 ****       -16.0000 -15.5000  31.0000 Du        
   5096 ****       -16.0000 -15.2500  30.5000 Du        
   5097 ****       -16.0000 -15.2500  30.7500 Du        
   5098 ****       -16.0000 -15.2500  31.0000 Du        
   5099 ****       -16.0000 -15.0000  30.2500 Du        
   5100 ****       -16.0000 -15.0000  30.5000 Du        
   5101 ****       -16.0000 -15.0000  30.7500 Du        
   5102 ****       -16.0000 -15.0000  31.0000 Du        
   5103 ****       -16.0000 -14.7500  30.2500 Du        
   5104 ****       -16.0000 -14.7500  30.5000 Du        
   5105 ****       -16.0000 -14.7500  30.7500 Du        
   5106 ****       -16.0000 -14.5000  30.2500 Du        
   5107 ****       -16.0000 -14.5000  30.7500 Du        
   5108 ****       -16.0000 -14.2500  30.2500 Du        
   5109 ****       -16.0000 -14.0000  30.2500 Du        
   5110 ****       -16.0000 -14.0000  30.5000 Du        
   5111 ****       -16.0000 -14.0000  30.7500 Du        
   5112 ****       -16.0000 -13.7500  30.2500 Du        
   5113 ****       -16.0000 -13.7500  30.5000 Du        
   5114 ****       -16.0000 -13.7500  30.7500 Du        
   5115 ****       -16.0000 -13.5000  30.2500 Du        
   5116 ****       -16.0000 -13.5000  30.5000 Du        
   5117 ****       -16.0000 -13.5000  30.7500 Du        
   5118 ****       -16.0000 -13.2500  30.2500 Du        
   5119 ****       -16.0000   2.7500  28.0000 Du        
   5120 ****       -16.0000   2.7500  28.2500 Du        
   5121 ****       -16.0000   2.7500  28.5000 Du        
   5122 ****       -16.0000   3.0000  28.0000 Du        
   5123 ****       -16.0000   3.0000  28.2500 Du        
   5124 ****       -16.0000   3.0000  28.5000 Du        
   5125 ****       -16.0000   3.0000  28.7500 Du        
   5126 ****       -16.0000   3.2500  22.2500 Du        
   5127 ****       -16.0000   3.2500  28.0000 Du        
   5128 ****       -16.0000   3.2500  28.2500 Du        
   5129 ****       -16.0000   3.2500  28.5000 Du        
   5130 ****       -16.0000   3.2500  28.7500 Du        
   5131 ****       -16.0000   5.5000  14.5000 Du        
   5132 ****       -16.0000   5.5000  14.7500 Du        
   5133 ****       -16.0000   5.5000  15.0000 Du        
   5134 ****       -16.0000   5.5000  15.2500 Du        
   5135 ****       -16.0000   5.5000  15.5000 Du        
   5136 ****       -16.0000   5.7500  14.5000 Du        
   5137 ****       -16.0000   5.7500  14.7500 Du        
   5138 ****       -16.0000   5.7500  15.0000 Du        
   5139 ****       -16.0000   5.7500  15.2500 Du        
   5140 ****       -16.0000   5.7500  15.5000 Du        
   5141 ****       -16.0000   5.7500  15.7500 Du        
   5142 ****       -16.0000   6.0000  14.5000 Du        
   5143 ****       -16.0000   6.0000  14.7500 Du        
   5144 ****       -16.0000   6.0000  15.0000 Du        
   5145 ****       -16.0000   6.0000  15.2500 Du        
   5146 ****       -16.0000   6.0000  15.5000 Du        
   5147 ****       -16.0000   6.0000  15.7500 Du        
   5148 ****       -16.0000   6.2500  14.5000 Du        
   5149 ****       -16.0000   6.2500  14.7500 Du        
   5150 ****       -16.0000   6.2500  15.0000 Du        
   5151 ****       -16.0000   6.2500  15.2500 Du        
   5152 ****       -16.0000   6.2500  15.5000 Du        
   5153 ****       -16.0000   6.2500  15.7500 Du        
   5154 ****       -15.7500 -21.2500  31.2500 Du        
   5155 ****       -15.7500 -21.2500  31.5000 Du        
   5156 ****       -15.7500 -21.2500  31.7500 Du        
   5157 ****       -15.7500 -21.2500  32.0000 Du        
   5158 ****       -15.7500 -21.2500  32.2500 Du        
   5159 ****       -15.7500 -21.0000  31.0000 Du        
   5160 ****       -15.7500 -21.0000  31.2500 Du        
   5161 ****       -15.7500 -21.0000  31.5000 Du        
   5162 ****       -15.7500 -21.0000  31.7500 Du        
   5163 ****       -15.7500 -21.0000  32.0000 Du        
   5164 ****       -15.7500 -21.0000  32.2500 Du        
   5165 ****       -15.7500 -20.7500  31.0000 Du        
   5166 ****       -15.7500 -20.7500  31.2500 Du        
   5167 ****       -15.7500 -20.7500  31.5000 Du        
   5168 ****       -15.7500 -20.7500  31.7500 Du        
   5169 ****       -15.7500 -20.7500  32.0000 Du        
   5170 ****       -15.7500 -20.7500  32.2500 Du        
   5171 ****       -15.7500 -20.5000  31.0000 Du        
   5172 ****       -15.7500 -20.5000  31.2500 Du        
   5173 ****       -15.7500 -20.5000  31.5000 Du        
   5174 ****       -15.7500 -20.5000  31.7500 Du        
   5175 ****       -15.7500 -20.5000  32.0000 Du        
   5176 ****       -15.7500 -20.5000  32.2500 Du        
   5177 ****       -15.7500 -20.2500  31.0000 Du        
   5178 ****       -15.7500 -20.2500  31.2500 Du        
   5179 ****       -15.7500 -20.2500  31.5000 Du        
   5180 ****       -15.7500 -20.2500  31.7500 Du        
   5181 ****       -15.7500 -20.2500  32.0000 Du        
   5182 ****       -15.7500 -20.2500  32.2500 Du        
   5183 ****       -15.7500 -20.0000  31.0000 Du        
   5184 ****       -15.7500 -20.0000  31.2500 Du        
   5185 ****       -15.7500 -20.0000  31.5000 Du        
   5186 ****       -15.7500 -20.0000  31.7500 Du        
   5187 ****       -15.7500 -20.0000  32.0000 Du        
   5188 ****       -15.7500 -20.0000  32.2500 Du        
   5189 ****       -15.7500 -19.7500  31.2500 Du        
   5190 ****       -15.7500 -19.7500  31.5000 Du        
   5191 ****       -15.7500 -19.7500  31.7500 Du        
   5192 ****       -15.7500 -19.7500  32.0000 Du        
   5193 ****       -15.7500 -19.5000  31.2500 Du        
   5194 ****       -15.7500 -19.5000  31.5000 Du        
   5195 ****       -15.7500 -19.5000  31.7500 Du        
   5196 ****       -15.7500 -19.5000  32.0000 Du        
   5197 ****       -15.7500 -15.0000  30.7500 Du        
   5198 ****       -15.7500 -14.5000  30.2500 Du        
   5199 ****       -15.7500 -14.2500  30.2500 Du        
   5200 ****       -15.7500 -13.7500  30.2500 Du        
   5201 ****       -15.7500 -13.5000  30.2500 Du        
   5202 ****       -15.7500  -4.2500  30.5000 Du        
   5203 ****       -15.7500  -4.0000  30.2500 Du        
   5204 ****       -15.7500  -4.0000  30.5000 Du        
   5205 ****       -15.7500  -3.7500  30.2500 Du        
   5206 ****       -15.7500  -3.7500  30.5000 Du        
   5207 ****       -15.7500   1.2500  23.0000 Du        
   5208 ****       -15.7500   1.2500  23.2500 Du        
   5209 ****       -15.7500   1.5000  22.7500 Du        
   5210 ****       -15.7500   1.5000  23.0000 Du        
   5211 ****       -15.7500   1.5000  23.2500 Du        
   5212 ****       -15.7500   1.7500  22.7500 Du        
   5213 ****       -15.7500   1.7500  23.0000 Du        
   5214 ****       -15.7500   1.7500  23.2500 Du        
   5215 ****       -15.7500   2.0000  22.5000 Du        
   5216 ****       -15.7500   2.0000  22.7500 Du        
   5217 ****       -15.7500   2.0000  23.0000 Du        
   5218 ****       -15.7500   2.0000  23.2500 Du        
   5219 ****       -15.7500   2.2500  22.5000 Du        
   5220 ****       -15.7500   2.2500  22.7500 Du        
   5221 ****       -15.7500   2.2500  23.0000 Du        
   5222 ****       -15.7500   2.2500  27.7500 Du        
   5223 ****       -15.7500   2.2500  28.0000 Du        
   5224 ****       -15.7500   2.2500  28.2500 Du        
   5225 ****       -15.7500   2.5000  22.7500 Du        
   5226 ****       -15.7500   2.5000  23.0000 Du        
   5227 ****       -15.7500   2.5000  27.7500 Du        
   5228 ****       -15.7500   2.5000  28.0000 Du        
   5229 ****       -15.7500   2.5000  28.2500 Du        
   5230 ****       -15.7500   2.5000  28.5000 Du        
   5231 ****       -15.7500   2.7500  22.2500 Du        
   5232 ****       -15.7500   2.7500  22.7500 Du        
   5233 ****       -15.7500   2.7500  27.7500 Du        
   5234 ****       -15.7500   2.7500  28.0000 Du        
   5235 ****       -15.7500   2.7500  28.2500 Du        
   5236 ****       -15.7500   2.7500  28.5000 Du        
   5237 ****       -15.7500   2.7500  28.7500 Du        
   5238 ****       -15.7500   3.0000  22.2500 Du        
   5239 ****       -15.7500   3.0000  28.0000 Du        
   5240 ****       -15.7500   3.0000  28.2500 Du        
   5241 ****       -15.7500   3.0000  28.5000 Du        
   5242 ****       -15.7500   3.0000  28.7500 Du        
   5243 ****       -15.7500   3.2500  22.2500 Du        
   5244 ****       -15.7500   3.2500  28.5000 Du        
   5245 ****       -15.7500   5.2500  14.5000 Du        
   5246 ****       -15.7500   5.2500  14.7500 Du        
   5247 ****       -15.7500   5.2500  15.0000 Du        
   5248 ****       -15.7500   5.2500  15.2500 Du        
   5249 ****       -15.7500   5.2500  15.5000 Du        
   5250 ****       -15.7500   5.2500  15.7500 Du        
   5251 ****       -15.7500   5.5000  14.5000 Du        
   5252 ****       -15.7500   5.5000  14.7500 Du        
   5253 ****       -15.7500   5.5000  15.0000 Du        
   5254 ****       -15.7500   5.5000  15.2500 Du        
   5255 ****       -15.7500   5.5000  15.5000 Du        
   5256 ****       -15.7500   5.5000  15.7500 Du        
   5257 ****       -15.7500   5.7500  14.5000 Du        
   5258 ****       -15.7500   5.7500  14.7500 Du        
   5259 ****       -15.7500   5.7500  15.0000 Du        
   5260 ****       -15.7500   5.7500  15.2500 Du        
   5261 ****       -15.7500   5.7500  15.5000 Du        
   5262 ****       -15.7500   5.7500  15.7500 Du        
   5263 ****       -15.7500   5.7500  16.0000 Du        
   5264 ****       -15.7500   6.0000  14.5000 Du        
   5265 ****       -15.7500   6.0000  14.7500 Du        
   5266 ****       -15.7500   6.0000  15.0000 Du        
   5267 ****       -15.7500   6.0000  15.2500 Du        
   5268 ****       -15.7500   6.0000  15.5000 Du        
   5269 ****       -15.7500   6.0000  15.7500 Du        
   5270 ****       -15.7500   6.0000  16.0000 Du        
   5271 ****       -15.7500   6.2500  14.5000 Du        
   5272 ****       -15.7500   6.2500  14.7500 Du        
   5273 ****       -15.7500   6.2500  15.0000 Du        
   5274 ****       -15.7500   6.2500  15.2500 Du        
   5275 ****       -15.7500   6.2500  15.5000 Du        
   5276 ****       -15.7500   6.2500  15.7500 Du        
   5277 ****       -15.5000 -21.0000  31.0000 Du        
   5278 ****       -15.5000 -21.0000  31.2500 Du        
   5279 ****       -15.5000 -21.0000  31.5000 Du        
   5280 ****       -15.5000 -21.0000  31.7500 Du        
   5281 ****       -15.5000 -20.7500  30.7500 Du        
   5282 ****       -15.5000 -20.7500  31.0000 Du        
   5283 ****       -15.5000 -20.7500  31.2500 Du        
   5284 ****       -15.5000 -20.7500  31.5000 Du        
   5285 ****       -15.5000 -20.7500  31.7500 Du        
   5286 ****       -15.5000 -20.7500  32.0000 Du        
   5287 ****       -15.5000 -20.5000  30.7500 Du        
   5288 ****       -15.5000 -20.5000  31.0000 Du        
   5289 ****       -15.5000 -20.5000  31.2500 Du        
   5290 ****       -15.5000 -20.5000  31.5000 Du        
   5291 ****       -15.5000 -20.5000  31.7500 Du        
   5292 ****       -15.5000 -20.5000  32.0000 Du        
   5293 ****       -15.5000 -20.5000  32.2500 Du        
   5294 ****       -15.5000 -20.2500  30.7500 Du        
   5295 ****       -15.5000 -20.2500  31.0000 Du        
   5296 ****       -15.5000 -20.2500  31.2500 Du        
   5297 ****       -15.5000 -20.2500  31.5000 Du        
   5298 ****       -15.5000 -20.2500  31.7500 Du        
   5299 ****       -15.5000 -20.2500  32.0000 Du        
   5300 ****       -15.5000 -20.0000  31.0000 Du        
   5301 ****       -15.5000 -20.0000  31.2500 Du        
   5302 ****       -15.5000 -20.0000  31.5000 Du        
   5303 ****       -15.5000 -20.0000  31.7500 Du        
   5304 ****       -15.5000 -20.0000  32.0000 Du        
   5305 ****       -15.5000 -19.7500  31.0000 Du        
   5306 ****       -15.5000 -19.7500  31.2500 Du        
   5307 ****       -15.5000 -19.7500  31.5000 Du        
   5308 ****       -15.5000 -19.7500  31.7500 Du        
   5309 ****       -15.5000 -19.7500  32.0000 Du        
   5310 ****       -15.5000 -19.5000  31.0000 Du        
   5311 ****       -15.5000 -19.5000  31.2500 Du        
   5312 ****       -15.5000 -19.5000  31.5000 Du        
   5313 ****       -15.5000 -19.5000  31.7500 Du        
   5314 ****       -15.5000 -19.2500  31.0000 Du        
   5315 ****       -15.5000 -19.2500  31.2500 Du        
   5316 ****       -15.5000 -19.2500  31.5000 Du        
   5317 ****       -15.5000 -19.0000  31.2500 Du        
   5318 ****       -15.5000 -18.7500  31.2500 Du        
   5319 ****       -15.5000  -5.7500  29.2500 Du        
   5320 ****       -15.5000  -4.7500  30.0000 Du        
   5321 ****       -15.5000  -4.7500  30.2500 Du        
   5322 ****       -15.5000  -4.5000  30.0000 Du        
   5323 ****       -15.5000  -4.5000  30.2500 Du        
   5324 ****       -15.5000  -4.5000  30.5000 Du        
   5325 ****       -15.5000  -4.2500  30.0000 Du        
   5326 ****       -15.5000  -4.2500  30.2500 Du        
   5327 ****       -15.5000  -4.2500  30.5000 Du        
   5328 ****       -15.5000  -4.0000  30.0000 Du        
   5329 ****       -15.5000  -4.0000  30.2500 Du        
   5330 ****       -15.5000  -4.0000  30.5000 Du        
   5331 ****       -15.5000  -4.0000  30.7500 Du        
   5332 ****       -15.5000  -3.7500  30.0000 Du        
   5333 ****       -15.5000  -3.7500  30.2500 Du        
   5334 ****       -15.5000  -3.7500  30.5000 Du        
   5335 ****       -15.5000  -3.5000  30.0000 Du        
   5336 ****       -15.5000  -3.5000  30.2500 Du        
   5337 ****       -15.5000   0.7500  23.0000 Du        
   5338 ****       -15.5000   0.7500  23.2500 Du        
   5339 ****       -15.5000   1.0000  23.0000 Du        
   5340 ****       -15.5000   1.0000  23.2500 Du        
   5341 ****       -15.5000   1.2500  22.7500 Du        
   5342 ****       -15.5000   1.2500  23.0000 Du        
   5343 ****       -15.5000   1.2500  23.2500 Du        
   5344 ****       -15.5000   1.5000  22.7500 Du        
   5345 ****       -15.5000   1.5000  23.0000 Du        
   5346 ****       -15.5000   1.5000  23.2500 Du        
   5347 ****       -15.5000   1.7500  22.7500 Du        
   5348 ****       -15.5000   1.7500  23.0000 Du        
   5349 ****       -15.5000   1.7500  23.2500 Du        
   5350 ****       -15.5000   2.0000  22.5000 Du        
   5351 ****       -15.5000   2.0000  22.7500 Du        
   5352 ****       -15.5000   2.0000  23.0000 Du        
   5353 ****       -15.5000   2.0000  23.2500 Du        
   5354 ****       -15.5000   2.0000  28.0000 Du        
   5355 ****       -15.5000   2.2500  22.5000 Du        
   5356 ****       -15.5000   2.2500  22.7500 Du        
   5357 ****       -15.5000   2.2500  23.0000 Du        
   5358 ****       -15.5000   2.2500  23.2500 Du        
   5359 ****       -15.5000   2.2500  28.0000 Du        
   5360 ****       -15.5000   2.2500  28.2500 Du        
   5361 ****       -15.5000   2.7500  22.2500 Du        
   5362 ****       -15.5000   3.0000  22.2500 Du        
   5363 ****       -15.5000   5.0000  14.7500 Du        
   5364 ****       -15.5000   5.0000  15.0000 Du        
   5365 ****       -15.5000   5.0000  15.2500 Du        
   5366 ****       -15.5000   5.0000  15.5000 Du        
   5367 ****       -15.5000   5.0000  15.7500 Du        
   5368 ****       -15.5000   5.2500  14.2500 Du        
   5369 ****       -15.5000   5.2500  14.5000 Du        
   5370 ****       -15.5000   5.2500  14.7500 Du        
   5371 ****       -15.5000   5.2500  15.0000 Du        
   5372 ****       -15.5000   5.2500  15.2500 Du        
   5373 ****       -15.5000   5.2500  15.5000 Du        
   5374 ****       -15.5000   5.2500  15.7500 Du        
   5375 ****       -15.5000   5.5000  14.2500 Du        
   5376 ****       -15.5000   5.5000  14.5000 Du        
   5377 ****       -15.5000   5.5000  14.7500 Du        
   5378 ****       -15.5000   5.5000  15.0000 Du        
   5379 ****       -15.5000   5.5000  15.2500 Du        
   5380 ****       -15.5000   5.5000  15.5000 Du        
   5381 ****       -15.5000   5.5000  15.7500 Du        
   5382 ****       -15.5000   5.7500  14.2500 Du        
   5383 ****       -15.5000   5.7500  14.5000 Du        
   5384 ****       -15.5000   5.7500  14.7500 Du        
   5385 ****       -15.5000   5.7500  15.0000 Du        
   5386 ****       -15.5000   5.7500  15.2500 Du        
   5387 ****       -15.5000   5.7500  15.5000 Du        
   5388 ****       -15.5000   5.7500  15.7500 Du        
   5389 ****       -15.5000   5.7500  16.0000 Du        
   5390 ****       -15.5000   6.0000  14.2500 Du        
   5391 ****       -15.5000   6.0000  14.5000 Du        
   5392 ****       -15.5000   6.0000  14.7500 Du        
   5393 ****       -15.5000   6.0000  15.0000 Du        
   5394 ****       -15.5000   6.0000  15.2500 Du        
   5395 ****       -15.5000   6.0000  15.5000 Du        
   5396 ****       -15.5000   6.0000  15.7500 Du        
   5397 ****       -15.5000   6.0000  16.0000 Du        
   5398 ****       -15.5000   6.2500  14.5000 Du        
   5399 ****       -15.5000   6.2500  14.7500 Du        
   5400 ****       -15.5000   6.2500  15.0000 Du        
   5401 ****       -15.5000   6.2500  15.2500 Du        
   5402 ****       -15.5000   6.2500  15.5000 Du        
   5403 ****       -15.5000   6.2500  15.7500 Du        
   5404 ****       -15.2500 -21.0000  30.7500 Du        
   5405 ****       -15.2500 -21.0000  31.0000 Du        
   5406 ****       -15.2500 -21.0000  31.2500 Du        
   5407 ****       -15.2500 -20.7500  30.7500 Du        
   5408 ****       -15.2500 -20.7500  31.0000 Du        
   5409 ****       -15.2500 -20.7500  31.2500 Du        
   5410 ****       -15.2500 -20.7500  31.5000 Du        
   5411 ****       -15.2500 -20.5000  30.7500 Du        
   5412 ****       -15.2500 -20.5000  31.0000 Du        
   5413 ****       -15.2500 -20.5000  31.2500 Du        
   5414 ****       -15.2500 -20.5000  31.5000 Du        
   5415 ****       -15.2500 -20.5000  31.7500 Du        
   5416 ****       -15.2500 -20.5000  32.0000 Du        
   5417 ****       -15.2500 -20.2500  30.7500 Du        
   5418 ****       -15.2500 -20.2500  31.0000 Du        
   5419 ****       -15.2500 -20.2500  31.2500 Du        
   5420 ****       -15.2500 -20.2500  31.5000 Du        
   5421 ****       -15.2500 -20.2500  31.7500 Du        
   5422 ****       -15.2500 -20.2500  32.0000 Du        
   5423 ****       -15.2500 -20.0000  30.5000 Du        
   5424 ****       -15.2500 -20.0000  30.7500 Du        
   5425 ****       -15.2500 -20.0000  31.0000 Du        
   5426 ****       -15.2500 -20.0000  31.2500 Du        
   5427 ****       -15.2500 -20.0000  31.5000 Du        
   5428 ****       -15.2500 -20.0000  31.7500 Du        
   5429 ****       -15.2500 -20.0000  32.0000 Du        
   5430 ****       -15.2500 -19.7500  30.7500 Du        
   5431 ****       -15.2500 -19.7500  31.0000 Du        
   5432 ****       -15.2500 -19.7500  31.2500 Du        
   5433 ****       -15.2500 -19.7500  31.5000 Du        
   5434 ****       -15.2500 -19.7500  31.7500 Du        
   5435 ****       -15.2500 -19.7500  32.0000 Du        
   5436 ****       -15.2500 -19.5000  30.7500 Du        
   5437 ****       -15.2500 -19.5000  31.0000 Du        
   5438 ****       -15.2500 -19.5000  31.2500 Du        
   5439 ****       -15.2500 -19.5000  31.5000 Du        
   5440 ****       -15.2500 -19.5000  31.7500 Du        
   5441 ****       -15.2500 -19.2500  30.7500 Du        
   5442 ****       -15.2500 -19.2500  31.0000 Du        
   5443 ****       -15.2500 -19.2500  31.2500 Du        
   5444 ****       -15.2500 -19.2500  31.5000 Du        
   5445 ****       -15.2500 -19.0000  30.7500 Du        
   5446 ****       -15.2500 -19.0000  31.0000 Du        
   5447 ****       -15.2500 -19.0000  31.2500 Du        
   5448 ****       -15.2500 -19.0000  31.5000 Du        
   5449 ****       -15.2500 -18.7500  30.7500 Du        
   5450 ****       -15.2500 -18.7500  31.0000 Du        
   5451 ****       -15.2500 -18.7500  31.2500 Du        
   5452 ****       -15.2500 -18.5000  31.0000 Du        
   5453 ****       -15.2500  -6.2500  29.0000 Du        
   5454 ****       -15.2500  -6.2500  29.2500 Du        
   5455 ****       -15.2500  -6.0000  29.0000 Du        
   5456 ****       -15.2500  -6.0000  29.2500 Du        
   5457 ****       -15.2500  -6.0000  29.5000 Du        
   5458 ****       -15.2500  -5.7500  21.7500 Du        
   5459 ****       -15.2500  -5.7500  22.0000 Du        
   5460 ****       -15.2500  -5.7500  29.0000 Du        
   5461 ****       -15.2500  -5.7500  29.2500 Du        
   5462 ****       -15.2500  -5.7500  29.5000 Du        
   5463 ****       -15.2500  -5.7500  29.7500 Du        
   5464 ****       -15.2500  -5.5000  29.0000 Du        
   5465 ****       -15.2500  -5.5000  29.2500 Du        
   5466 ****       -15.2500  -5.5000  29.5000 Du        
   5467 ****       -15.2500  -5.5000  29.7500 Du        
   5468 ****       -15.2500  -5.2500  29.2500 Du        
   5469 ****       -15.2500  -5.2500  29.5000 Du        
   5470 ****       -15.2500  -5.2500  29.7500 Du        
   5471 ****       -15.2500  -5.2500  30.0000 Du        
   5472 ****       -15.2500  -5.0000  29.2500 Du        
   5473 ****       -15.2500  -5.0000  29.5000 Du        
   5474 ****       -15.2500  -5.0000  29.7500 Du        
   5475 ****       -15.2500  -5.0000  30.0000 Du        
   5476 ****       -15.2500  -5.0000  30.2500 Du        
   5477 ****       -15.2500  -4.7500  29.5000 Du        
   5478 ****       -15.2500  -4.7500  29.7500 Du        
   5479 ****       -15.2500  -4.7500  30.0000 Du        
   5480 ****       -15.2500  -4.7500  30.2500 Du        
   5481 ****       -15.2500  -4.5000  29.5000 Du        
   5482 ****       -15.2500  -4.5000  29.7500 Du        
   5483 ****       -15.2500  -4.5000  30.0000 Du        
   5484 ****       -15.2500  -4.5000  30.2500 Du        
   5485 ****       -15.2500  -4.5000  30.5000 Du        
   5486 ****       -15.2500  -4.2500  29.5000 Du        
   5487 ****       -15.2500  -4.2500  29.7500 Du        
   5488 ****       -15.2500  -4.2500  30.0000 Du        
   5489 ****       -15.2500  -4.2500  30.2500 Du        
   5490 ****       -15.2500  -4.2500  30.5000 Du        
   5491 ****       -15.2500  -4.2500  30.7500 Du        
   5492 ****       -15.2500  -4.0000  29.5000 Du        
   5493 ****       -15.2500  -4.0000  29.7500 Du        
   5494 ****       -15.2500  -4.0000  30.0000 Du        
   5495 ****       -15.2500  -4.0000  30.2500 Du        
   5496 ****       -15.2500  -4.0000  30.5000 Du        
   5497 ****       -15.2500  -4.0000  30.7500 Du        
   5498 ****       -15.2500  -3.7500  29.5000 Du        
   5499 ****       -15.2500  -3.7500  29.7500 Du        
   5500 ****       -15.2500  -3.7500  30.0000 Du        
   5501 ****       -15.2500  -3.7500  30.2500 Du        
   5502 ****       -15.2500  -3.7500  30.5000 Du        
   5503 ****       -15.2500  -3.7500  30.7500 Du        
   5504 ****       -15.2500  -3.5000  29.7500 Du        
   5505 ****       -15.2500  -3.5000  30.0000 Du        
   5506 ****       -15.2500  -3.5000  30.2500 Du        
   5507 ****       -15.2500  -3.5000  30.5000 Du        
   5508 ****       -15.2500  -3.2500  29.7500 Du        
   5509 ****       -15.2500  -3.2500  30.0000 Du        
   5510 ****       -15.2500  -3.2500  30.2500 Du        
   5511 ****       -15.2500  -2.0000  24.2500 Du        
   5512 ****       -15.2500  -1.7500  24.0000 Du        
   5513 ****       -15.2500  -1.7500  24.2500 Du        
   5514 ****       -15.2500  -1.2500  24.0000 Du        
   5515 ****       -15.2500  -1.0000  23.7500 Du        
   5516 ****       -15.2500  -1.0000  24.0000 Du        
   5517 ****       -15.2500  -0.7500  23.7500 Du        
   5518 ****       -15.2500  -0.7500  24.0000 Du        
   5519 ****       -15.2500  -0.5000  23.7500 Du        
   5520 ****       -15.2500  -0.5000  24.0000 Du        
   5521 ****       -15.2500  -0.2500  23.5000 Du        
   5522 ****       -15.2500  -0.2500  23.7500 Du        
   5523 ****       -15.2500  -0.2500  24.0000 Du        
   5524 ****       -15.2500   0.0000  23.2500 Du        
   5525 ****       -15.2500   0.0000  23.5000 Du        
   5526 ****       -15.2500   0.0000  23.7500 Du        
   5527 ****       -15.2500   0.0000  24.0000 Du        
   5528 ****       -15.2500   0.2500  23.0000 Du        
   5529 ****       -15.2500   0.2500  23.2500 Du        
   5530 ****       -15.2500   0.2500  23.5000 Du        
   5531 ****       -15.2500   0.2500  23.7500 Du        
   5532 ****       -15.2500   0.2500  24.0000 Du        
   5533 ****       -15.2500   0.5000  23.0000 Du        
   5534 ****       -15.2500   0.5000  23.2500 Du        
   5535 ****       -15.2500   0.7500  22.7500 Du        
   5536 ****       -15.2500   0.7500  23.0000 Du        
   5537 ****       -15.2500   0.7500  23.2500 Du        
   5538 ****       -15.2500   1.0000  22.5000 Du        
   5539 ****       -15.2500   1.0000  22.7500 Du        
   5540 ****       -15.2500   1.0000  23.0000 Du        
   5541 ****       -15.2500   1.0000  23.2500 Du        
   5542 ****       -15.2500   1.0000  27.2500 Du        
   5543 ****       -15.2500   1.2500  22.2500 Du        
   5544 ****       -15.2500   1.2500  22.5000 Du        
   5545 ****       -15.2500   1.2500  22.7500 Du        
   5546 ****       -15.2500   1.2500  23.0000 Du        
   5547 ****       -15.2500   1.2500  23.2500 Du        
   5548 ****       -15.2500   1.2500  27.2500 Du        
   5549 ****       -15.2500   1.5000  22.2500 Du        
   5550 ****       -15.2500   1.5000  22.5000 Du        
   5551 ****       -15.2500   1.5000  22.7500 Du        
   5552 ****       -15.2500   1.5000  23.0000 Du        
   5553 ****       -15.2500   1.5000  23.2500 Du        
   5554 ****       -15.2500   1.7500  22.2500 Du        
   5555 ****       -15.2500   1.7500  22.5000 Du        
   5556 ****       -15.2500   1.7500  22.7500 Du        
   5557 ****       -15.2500   1.7500  23.0000 Du        
   5558 ****       -15.2500   1.7500  23.2500 Du        
   5559 ****       -15.2500   2.0000  22.2500 Du        
   5560 ****       -15.2500   2.0000  22.5000 Du        
   5561 ****       -15.2500   2.0000  22.7500 Du        
   5562 ****       -15.2500   2.0000  23.0000 Du        
   5563 ****       -15.2500   2.0000  23.2500 Du        
   5564 ****       -15.2500   2.0000  27.7500 Du        
   5565 ****       -15.2500   2.0000  28.0000 Du        
   5566 ****       -15.2500   2.0000  28.2500 Du        
   5567 ****       -15.2500   2.2500  22.2500 Du        
   5568 ****       -15.2500   2.2500  22.5000 Du        
   5569 ****       -15.2500   2.2500  22.7500 Du        
   5570 ****       -15.2500   2.2500  23.0000 Du        
   5571 ****       -15.2500   2.2500  23.2500 Du        
   5572 ****       -15.2500   2.2500  28.0000 Du        
   5573 ****       -15.2500   2.2500  28.2500 Du        
   5574 ****       -15.2500   2.5000  22.2500 Du        
   5575 ****       -15.2500   2.7500  22.2500 Du        
   5576 ****       -15.2500   4.7500  14.7500 Du        
   5577 ****       -15.2500   4.7500  15.0000 Du        
   5578 ****       -15.2500   4.7500  15.2500 Du        
   5579 ****       -15.2500   4.7500  15.5000 Du        
   5580 ****       -15.2500   4.7500  15.7500 Du        
   5581 ****       -15.2500   5.0000  14.0000 Du        
   5582 ****       -15.2500   5.0000  14.2500 Du        
   5583 ****       -15.2500   5.0000  14.5000 Du        
   5584 ****       -15.2500   5.0000  14.7500 Du        
   5585 ****       -15.2500   5.0000  15.0000 Du        
   5586 ****       -15.2500   5.0000  15.2500 Du        
   5587 ****       -15.2500   5.0000  15.5000 Du        
   5588 ****       -15.2500   5.0000  15.7500 Du        
   5589 ****       -15.2500   5.0000  16.0000 Du        
   5590 ****       -15.2500   5.2500  14.0000 Du        
   5591 ****       -15.2500   5.2500  14.2500 Du        
   5592 ****       -15.2500   5.2500  14.5000 Du        
   5593 ****       -15.2500   5.2500  14.7500 Du        
   5594 ****       -15.2500   5.2500  15.0000 Du        
   5595 ****       -15.2500   5.2500  15.2500 Du        
   5596 ****       -15.2500   5.2500  15.5000 Du        
   5597 ****       -15.2500   5.2500  15.7500 Du        
   5598 ****       -15.2500   5.2500  16.0000 Du        
   5599 ****       -15.2500   5.5000  14.0000 Du        
   5600 ****       -15.2500   5.5000  14.2500 Du        
   5601 ****       -15.2500   5.5000  14.5000 Du        
   5602 ****       -15.2500   5.5000  14.7500 Du        
   5603 ****       -15.2500   5.5000  15.0000 Du        
   5604 ****       -15.2500   5.5000  15.2500 Du        
   5605 ****       -15.2500   5.5000  15.5000 Du        
   5606 ****       -15.2500   5.5000  15.7500 Du        
   5607 ****       -15.2500   5.5000  16.0000 Du        
   5608 ****       -15.2500   5.7500  14.2500 Du        
   5609 ****       -15.2500   5.7500  14.5000 Du        
   5610 ****       -15.2500   5.7500  14.7500 Du        
   5611 ****       -15.2500   5.7500  15.0000 Du        
   5612 ****       -15.2500   5.7500  15.2500 Du        
   5613 ****       -15.2500   5.7500  15.5000 Du        
   5614 ****       -15.2500   5.7500  15.7500 Du        
   5615 ****       -15.2500   5.7500  16.0000 Du        
   5616 ****       -15.2500   5.7500  16.2500 Du        
   5617 ****       -15.2500   6.0000  14.2500 Du        
   5618 ****       -15.2500   6.0000  14.5000 Du        
   5619 ****       -15.2500   6.0000  14.7500 Du        
   5620 ****       -15.2500   6.0000  15.0000 Du        
   5621 ****       -15.2500   6.0000  15.2500 Du        
   5622 ****       -15.2500   6.0000  15.5000 Du        
   5623 ****       -15.2500   6.0000  15.7500 Du        
   5624 ****       -15.2500   6.0000  16.0000 Du        
   5625 ****       -15.2500   6.2500  14.2500 Du        
   5626 ****       -15.2500   6.2500  14.5000 Du        
   5627 ****       -15.2500   6.2500  14.7500 Du        
   5628 ****       -15.2500   6.2500  15.0000 Du        
   5629 ****       -15.2500   6.2500  15.2500 Du        
   5630 ****       -15.2500   6.2500  15.5000 Du        
   5631 ****       -15.2500   6.2500  15.7500 Du        
   5632 ****       -15.2500  12.0000  22.2500 Du        
   5633 ****       -15.2500  12.0000  22.5000 Du        
   5634 ****       -15.2500  12.0000  23.0000 Du        
   5635 ****       -15.0000 -20.7500  30.7500 Du        
   5636 ****       -15.0000 -20.7500  31.0000 Du        
   5637 ****       -15.0000 -20.7500  31.2500 Du        
   5638 ****       -15.0000 -20.5000  30.5000 Du        
   5639 ****       -15.0000 -20.5000  30.7500 Du        
   5640 ****       -15.0000 -20.5000  31.0000 Du        
   5641 ****       -15.0000 -20.5000  31.2500 Du        
   5642 ****       -15.0000 -20.5000  31.5000 Du        
   5643 ****       -15.0000 -20.2500  30.5000 Du        
   5644 ****       -15.0000 -20.2500  30.7500 Du        
   5645 ****       -15.0000 -20.2500  31.0000 Du        
   5646 ****       -15.0000 -20.2500  31.2500 Du        
   5647 ****       -15.0000 -20.2500  31.5000 Du        
   5648 ****       -15.0000 -20.2500  31.7500 Du        
   5649 ****       -15.0000 -20.2500  32.0000 Du        
   5650 ****       -15.0000 -20.0000  30.5000 Du        
   5651 ****       -15.0000 -20.0000  30.7500 Du        
   5652 ****       -15.0000 -20.0000  31.0000 Du        
   5653 ****       -15.0000 -20.0000  31.2500 Du        
   5654 ****       -15.0000 -20.0000  31.5000 Du        
   5655 ****       -15.0000 -20.0000  31.7500 Du        
   5656 ****       -15.0000 -19.7500  30.5000 Du        
   5657 ****       -15.0000 -19.7500  30.7500 Du        
   5658 ****       -15.0000 -19.7500  31.0000 Du        
   5659 ****       -15.0000 -19.7500  31.2500 Du        
   5660 ****       -15.0000 -19.7500  31.5000 Du        
   5661 ****       -15.0000 -19.7500  31.7500 Du        
   5662 ****       -15.0000 -19.7500  32.0000 Du        
   5663 ****       -15.0000 -19.5000  30.5000 Du        
   5664 ****       -15.0000 -19.5000  30.7500 Du        
   5665 ****       -15.0000 -19.5000  31.0000 Du        
   5666 ****       -15.0000 -19.5000  31.2500 Du        
   5667 ****       -15.0000 -19.5000  31.5000 Du        
   5668 ****       -15.0000 -19.5000  31.7500 Du        
   5669 ****       -15.0000 -19.2500  30.5000 Du        
   5670 ****       -15.0000 -19.2500  30.7500 Du        
   5671 ****       -15.0000 -19.2500  31.0000 Du        
   5672 ****       -15.0000 -19.2500  31.2500 Du        
   5673 ****       -15.0000 -19.2500  31.5000 Du        
   5674 ****       -15.0000 -19.0000  30.5000 Du        
   5675 ****       -15.0000 -19.0000  30.7500 Du        
   5676 ****       -15.0000 -19.0000  31.0000 Du        
   5677 ****       -15.0000 -19.0000  31.2500 Du        
   5678 ****       -15.0000 -19.0000  31.5000 Du        
   5679 ****       -15.0000 -18.7500  30.5000 Du        
   5680 ****       -15.0000 -18.7500  30.7500 Du        
   5681 ****       -15.0000 -18.7500  31.0000 Du        
   5682 ****       -15.0000 -18.7500  31.2500 Du        
   5683 ****       -15.0000 -18.5000  30.5000 Du        
   5684 ****       -15.0000 -18.5000  30.7500 Du        
   5685 ****       -15.0000 -18.5000  31.0000 Du        
   5686 ****       -15.0000 -18.2500  30.7500 Du        
   5687 ****       -15.0000 -18.2500  31.0000 Du        
   5688 ****       -15.0000 -18.0000  30.7500 Du        
   5689 ****       -15.0000  -6.5000  22.5000 Du        
   5690 ****       -15.0000  -6.2500  22.0000 Du        
   5691 ****       -15.0000  -6.2500  22.2500 Du        
   5692 ****       -15.0000  -6.2500  22.5000 Du        
   5693 ****       -15.0000  -6.2500  29.0000 Du        
   5694 ****       -15.0000  -6.2500  29.2500 Du        
   5695 ****       -15.0000  -6.2500  29.5000 Du        
   5696 ****       -15.0000  -6.0000  21.7500 Du        
   5697 ****       -15.0000  -6.0000  22.0000 Du        
   5698 ****       -15.0000  -6.0000  22.2500 Du        
   5699 ****       -15.0000  -6.0000  22.5000 Du        
   5700 ****       -15.0000  -6.0000  28.7500 Du        
   5701 ****       -15.0000  -6.0000  29.0000 Du        
   5702 ****       -15.0000  -6.0000  29.2500 Du        
   5703 ****       -15.0000  -6.0000  29.5000 Du        
   5704 ****       -15.0000  -5.7500  21.5000 Du        
   5705 ****       -15.0000  -5.7500  21.7500 Du        
   5706 ****       -15.0000  -5.7500  22.0000 Du        
   5707 ****       -15.0000  -5.7500  22.2500 Du        
   5708 ****       -15.0000  -5.7500  22.5000 Du        
   5709 ****       -15.0000  -5.7500  29.0000 Du        
   5710 ****       -15.0000  -5.7500  29.2500 Du        
   5711 ****       -15.0000  -5.7500  29.5000 Du        
   5712 ****       -15.0000  -5.7500  29.7500 Du        
   5713 ****       -15.0000  -5.5000  21.5000 Du        
   5714 ****       -15.0000  -5.5000  21.7500 Du        
   5715 ****       -15.0000  -5.5000  22.0000 Du        
   5716 ****       -15.0000  -5.5000  22.2500 Du        
   5717 ****       -15.0000  -5.5000  29.0000 Du        
   5718 ****       -15.0000  -5.5000  29.2500 Du        
   5719 ****       -15.0000  -5.5000  29.5000 Du        
   5720 ****       -15.0000  -5.5000  29.7500 Du        
   5721 ****       -15.0000  -5.2500  21.7500 Du        
   5722 ****       -15.0000  -5.2500  22.0000 Du        
   5723 ****       -15.0000  -5.2500  22.2500 Du        
   5724 ****       -15.0000  -5.2500  29.0000 Du        
   5725 ****       -15.0000  -5.2500  29.2500 Du        
   5726 ****       -15.0000  -5.2500  29.5000 Du        
   5727 ****       -15.0000  -5.2500  29.7500 Du        
   5728 ****       -15.0000  -5.2500  30.0000 Du        
   5729 ****       -15.0000  -5.0000  22.0000 Du        
   5730 ****       -15.0000  -5.0000  29.0000 Du        
   5731 ****       -15.0000  -5.0000  29.2500 Du        
   5732 ****       -15.0000  -5.0000  29.5000 Du        
   5733 ****       -15.0000  -5.0000  29.7500 Du        
   5734 ****       -15.0000  -5.0000  30.0000 Du        
   5735 ****       -15.0000  -5.0000  30.2500 Du        
   5736 ****       -15.0000  -4.7500  29.2500 Du        
   5737 ****       -15.0000  -4.7500  29.5000 Du        
   5738 ****       -15.0000  -4.7500  29.7500 Du        
   5739 ****       -15.0000  -4.7500  30.0000 Du        
   5740 ****       -15.0000  -4.7500  30.2500 Du        
   5741 ****       -15.0000  -4.7500  30.5000 Du        
   5742 ****       -15.0000  -4.5000  29.2500 Du        
   5743 ****       -15.0000  -4.5000  29.5000 Du        
   5744 ****       -15.0000  -4.5000  29.7500 Du        
   5745 ****       -15.0000  -4.5000  30.0000 Du        
   5746 ****       -15.0000  -4.5000  30.2500 Du        
   5747 ****       -15.0000  -4.5000  30.5000 Du        
   5748 ****       -15.0000  -4.2500  29.2500 Du        
   5749 ****       -15.0000  -4.2500  29.5000 Du        
   5750 ****       -15.0000  -4.2500  29.7500 Du        
   5751 ****       -15.0000  -4.2500  30.0000 Du        
   5752 ****       -15.0000  -4.2500  30.2500 Du        
   5753 ****       -15.0000  -4.2500  30.5000 Du        
   5754 ****       -15.0000  -4.2500  30.7500 Du        
   5755 ****       -15.0000  -4.0000  29.2500 Du        
   5756 ****       -15.0000  -4.0000  29.5000 Du        
   5757 ****       -15.0000  -4.0000  29.7500 Du        
   5758 ****       -15.0000  -4.0000  30.0000 Du        
   5759 ****       -15.0000  -4.0000  30.2500 Du        
   5760 ****       -15.0000  -4.0000  30.5000 Du        
   5761 ****       -15.0000  -4.0000  30.7500 Du        
   5762 ****       -15.0000  -3.7500  29.0000 Du        
   5763 ****       -15.0000  -3.7500  29.2500 Du        
   5764 ****       -15.0000  -3.7500  29.5000 Du        
   5765 ****       -15.0000  -3.7500  29.7500 Du        
   5766 ****       -15.0000  -3.7500  30.0000 Du        
   5767 ****       -15.0000  -3.7500  30.2500 Du        
   5768 ****       -15.0000  -3.7500  30.5000 Du        
   5769 ****       -15.0000  -3.7500  30.7500 Du        
   5770 ****       -15.0000  -3.5000  29.2500 Du        
   5771 ****       -15.0000  -3.5000  29.5000 Du        
   5772 ****       -15.0000  -3.5000  29.7500 Du        
   5773 ****       -15.0000  -3.5000  30.0000 Du        
   5774 ****       -15.0000  -3.5000  30.2500 Du        
   5775 ****       -15.0000  -3.5000  30.5000 Du        
   5776 ****       -15.0000  -3.2500  29.2500 Du        
   5777 ****       -15.0000  -3.2500  29.5000 Du        
   5778 ****       -15.0000  -3.2500  29.7500 Du        
   5779 ****       -15.0000  -3.2500  30.0000 Du        
   5780 ****       -15.0000  -3.2500  30.2500 Du        
   5781 ****       -15.0000  -3.0000  29.2500 Du        
   5782 ****       -15.0000  -3.0000  29.7500 Du        
   5783 ****       -15.0000  -2.2500  24.0000 Du        
   5784 ****       -15.0000  -2.2500  24.2500 Du        
   5785 ****       -15.0000  -2.0000  23.7500 Du        
   5786 ****       -15.0000  -2.0000  24.0000 Du        
   5787 ****       -15.0000  -2.0000  24.2500 Du        
   5788 ****       -15.0000  -1.7500  23.7500 Du        
   5789 ****       -15.0000  -1.7500  24.0000 Du        
   5790 ****       -15.0000  -1.7500  24.2500 Du        
   5791 ****       -15.0000  -1.5000  23.7500 Du        
   5792 ****       -15.0000  -1.5000  24.0000 Du        
   5793 ****       -15.0000  -1.5000  24.2500 Du        
   5794 ****       -15.0000  -1.2500  23.5000 Du        
   5795 ****       -15.0000  -1.2500  23.7500 Du        
   5796 ****       -15.0000  -1.2500  24.0000 Du        
   5797 ****       -15.0000  -1.2500  24.2500 Du        
   5798 ****       -15.0000  -1.0000  23.2500 Du        
   5799 ****       -15.0000  -1.0000  23.5000 Du        
   5800 ****       -15.0000  -1.0000  23.7500 Du        
   5801 ****       -15.0000  -1.0000  24.0000 Du        
   5802 ****       -15.0000  -1.0000  24.2500 Du        
   5803 ****       -15.0000  -0.7500  23.2500 Du        
   5804 ****       -15.0000  -0.7500  23.5000 Du        
   5805 ****       -15.0000  -0.7500  23.7500 Du        
   5806 ****       -15.0000  -0.7500  24.0000 Du        
   5807 ****       -15.0000  -0.7500  24.2500 Du        
   5808 ****       -15.0000  -0.5000  23.2500 Du        
   5809 ****       -15.0000  -0.5000  23.5000 Du        
   5810 ****       -15.0000  -0.5000  23.7500 Du        
   5811 ****       -15.0000  -0.5000  24.0000 Du        
   5812 ****       -15.0000  -0.5000  24.2500 Du        
   5813 ****       -15.0000  -0.2500  23.0000 Du        
   5814 ****       -15.0000  -0.2500  23.2500 Du        
   5815 ****       -15.0000  -0.2500  23.5000 Du        
   5816 ****       -15.0000  -0.2500  23.7500 Du        
   5817 ****       -15.0000  -0.2500  24.0000 Du        
   5818 ****       -15.0000  -0.2500  24.2500 Du        
   5819 ****       -15.0000   0.0000  23.0000 Du        
   5820 ****       -15.0000   0.0000  23.2500 Du        
   5821 ****       -15.0000   0.0000  23.5000 Du        
   5822 ****       -15.0000   0.0000  23.7500 Du        
   5823 ****       -15.0000   0.0000  24.0000 Du        
   5824 ****       -15.0000   0.0000  24.2500 Du        
   5825 ****       -15.0000   0.2500  22.7500 Du        
   5826 ****       -15.0000   0.2500  23.0000 Du        
   5827 ****       -15.0000   0.2500  23.2500 Du        
   5828 ****       -15.0000   0.2500  23.5000 Du        
   5829 ****       -15.0000   0.2500  23.7500 Du        
   5830 ****       -15.0000   0.2500  24.0000 Du        
   5831 ****       -15.0000   0.5000  22.7500 Du        
   5832 ****       -15.0000   0.5000  23.0000 Du        
   5833 ****       -15.0000   0.5000  23.2500 Du        
   5834 ****       -15.0000   0.7500  22.2500 Du        
   5835 ****       -15.0000   0.7500  22.5000 Du        
   5836 ****       -15.0000   0.7500  22.7500 Du        
   5837 ****       -15.0000   0.7500  23.0000 Du        
   5838 ****       -15.0000   0.7500  23.2500 Du        
   5839 ****       -15.0000   1.0000  22.0000 Du        
   5840 ****       -15.0000   1.0000  22.2500 Du        
   5841 ****       -15.0000   1.0000  22.5000 Du        
   5842 ****       -15.0000   1.0000  22.7500 Du        
   5843 ****       -15.0000   1.0000  23.0000 Du        
   5844 ****       -15.0000   1.0000  23.2500 Du        
   5845 ****       -15.0000   1.0000  27.2500 Du        
   5846 ****       -15.0000   1.2500  22.0000 Du        
   5847 ****       -15.0000   1.2500  22.2500 Du        
   5848 ****       -15.0000   1.2500  22.5000 Du        
   5849 ****       -15.0000   1.2500  22.7500 Du        
   5850 ****       -15.0000   1.2500  23.0000 Du        
   5851 ****       -15.0000   1.2500  23.2500 Du        
   5852 ****       -15.0000   1.5000  22.0000 Du        
   5853 ****       -15.0000   1.5000  22.2500 Du        
   5854 ****       -15.0000   1.5000  22.5000 Du        
   5855 ****       -15.0000   1.5000  22.7500 Du        
   5856 ****       -15.0000   1.5000  23.0000 Du        
   5857 ****       -15.0000   1.7500  22.0000 Du        
   5858 ****       -15.0000   1.7500  22.2500 Du        
   5859 ****       -15.0000   1.7500  22.5000 Du        
   5860 ****       -15.0000   1.7500  22.7500 Du        
   5861 ****       -15.0000   1.7500  23.0000 Du        
   5862 ****       -15.0000   2.0000  22.0000 Du        
   5863 ****       -15.0000   2.0000  22.2500 Du        
   5864 ****       -15.0000   2.0000  22.5000 Du        
   5865 ****       -15.0000   2.0000  22.7500 Du        
   5866 ****       -15.0000   2.2500  22.2500 Du        
   5867 ****       -15.0000   4.7500  14.0000 Du        
   5868 ****       -15.0000   4.7500  14.2500 Du        
   5869 ****       -15.0000   4.7500  14.5000 Du        
   5870 ****       -15.0000   4.7500  14.7500 Du        
   5871 ****       -15.0000   4.7500  15.0000 Du        
   5872 ****       -15.0000   4.7500  15.2500 Du        
   5873 ****       -15.0000   4.7500  15.5000 Du        
   5874 ****       -15.0000   4.7500  15.7500 Du        
   5875 ****       -15.0000   4.7500  16.0000 Du        
   5876 ****       -15.0000   4.7500  16.2500 Du        
   5877 ****       -15.0000   5.0000  13.7500 Du        
   5878 ****       -15.0000   5.0000  14.0000 Du        
   5879 ****       -15.0000   5.0000  14.2500 Du        
   5880 ****       -15.0000   5.0000  14.5000 Du        
   5881 ****       -15.0000   5.0000  14.7500 Du        
   5882 ****       -15.0000   5.0000  15.0000 Du        
   5883 ****       -15.0000   5.0000  15.2500 Du        
   5884 ****       -15.0000   5.0000  15.5000 Du        
   5885 ****       -15.0000   5.0000  15.7500 Du        
   5886 ****       -15.0000   5.0000  16.0000 Du        
   5887 ****       -15.0000   5.0000  16.2500 Du        
   5888 ****       -15.0000   5.2500  13.7500 Du        
   5889 ****       -15.0000   5.2500  14.0000 Du        
   5890 ****       -15.0000   5.2500  14.2500 Du        
   5891 ****       -15.0000   5.2500  14.5000 Du        
   5892 ****       -15.0000   5.2500  14.7500 Du        
   5893 ****       -15.0000   5.2500  15.0000 Du        
   5894 ****       -15.0000   5.2500  15.2500 Du        
   5895 ****       -15.0000   5.2500  15.5000 Du        
   5896 ****       -15.0000   5.2500  15.7500 Du        
   5897 ****       -15.0000   5.2500  16.0000 Du        
   5898 ****       -15.0000   5.2500  16.2500 Du        
   5899 ****       -15.0000   5.5000  14.0000 Du        
   5900 ****       -15.0000   5.5000  14.2500 Du        
   5901 ****       -15.0000   5.5000  14.5000 Du        
   5902 ****       -15.0000   5.5000  14.7500 Du        
   5903 ****       -15.0000   5.5000  15.0000 Du        
   5904 ****       -15.0000   5.5000  15.2500 Du        
   5905 ****       -15.0000   5.5000  15.5000 Du        
   5906 ****       -15.0000   5.5000  15.7500 Du        
   5907 ****       -15.0000   5.5000  16.0000 Du        
   5908 ****       -15.0000   5.5000  16.2500 Du        
   5909 ****       -15.0000   5.7500  14.0000 Du        
   5910 ****       -15.0000   5.7500  14.2500 Du        
   5911 ****       -15.0000   5.7500  14.5000 Du        
   5912 ****       -15.0000   5.7500  14.7500 Du        
   5913 ****       -15.0000   5.7500  15.0000 Du        
   5914 ****       -15.0000   5.7500  15.2500 Du        
   5915 ****       -15.0000   5.7500  15.5000 Du        
   5916 ****       -15.0000   5.7500  15.7500 Du        
   5917 ****       -15.0000   5.7500  16.0000 Du        
   5918 ****       -15.0000   5.7500  16.2500 Du        
   5919 ****       -15.0000   6.0000  14.0000 Du        
   5920 ****       -15.0000   6.0000  14.2500 Du        
   5921 ****       -15.0000   6.0000  14.5000 Du        
   5922 ****       -15.0000   6.0000  14.7500 Du        
   5923 ****       -15.0000   6.0000  15.0000 Du        
   5924 ****       -15.0000   6.0000  15.2500 Du        
   5925 ****       -15.0000   6.0000  15.5000 Du        
   5926 ****       -15.0000   6.0000  15.7500 Du        
   5927 ****       -15.0000   6.0000  16.0000 Du        
   5928 ****       -15.0000   6.2500  14.2500 Du        
   5929 ****       -15.0000   6.2500  14.5000 Du        
   5930 ****       -15.0000   6.2500  14.7500 Du        
   5931 ****       -15.0000   6.2500  15.0000 Du        
   5932 ****       -15.0000   6.2500  15.2500 Du        
   5933 ****       -15.0000   6.2500  15.7500 Du        
   5934 ****       -15.0000   6.5000  14.7500 Du        
   5935 ****       -15.0000   6.5000  15.0000 Du        
   5936 ****       -15.0000   6.7500  14.7500 Du        
   5937 ****       -15.0000  11.7500  22.0000 Du        
   5938 ****       -15.0000  11.7500  22.2500 Du        
   5939 ****       -15.0000  11.7500  22.5000 Du        
   5940 ****       -15.0000  11.7500  22.7500 Du        
   5941 ****       -15.0000  11.7500  23.0000 Du        
   5942 ****       -15.0000  12.0000  22.0000 Du        
   5943 ****       -15.0000  12.0000  22.2500 Du        
   5944 ****       -15.0000  12.0000  22.5000 Du        
   5945 ****       -15.0000  12.0000  22.7500 Du        
   5946 ****       -15.0000  12.0000  23.0000 Du        
   5947 ****       -15.0000  12.0000  23.2500 Du        
   5948 ****       -15.0000  12.2500  22.5000 Du        
   5949 ****       -15.0000  12.2500  22.7500 Du        
   5950 ****       -15.0000  12.2500  23.0000 Du        
   5951 ****       -15.0000  12.2500  23.2500 Du        
   5952 ****       -14.7500 -20.7500  30.7500 Du        
   5953 ****       -14.7500 -20.5000  30.7500 Du        
   5954 ****       -14.7500 -20.5000  31.0000 Du        
   5955 ****       -14.7500 -20.5000  31.2500 Du        
   5956 ****       -14.7500 -20.2500  30.5000 Du        
   5957 ****       -14.7500 -20.2500  30.7500 Du        
   5958 ****       -14.7500 -20.2500  31.0000 Du        
   5959 ****       -14.7500 -20.2500  31.2500 Du        
   5960 ****       -14.7500 -20.2500  31.5000 Du        
   5961 ****       -14.7500 -20.0000  30.5000 Du        
   5962 ****       -14.7500 -20.0000  30.7500 Du        
   5963 ****       -14.7500 -20.0000  31.0000 Du        
   5964 ****       -14.7500 -20.0000  31.2500 Du        
   5965 ****       -14.7500 -20.0000  31.5000 Du        
   5966 ****       -14.7500 -20.0000  31.7500 Du        
   5967 ****       -14.7500 -19.7500  30.5000 Du        
   5968 ****       -14.7500 -19.7500  30.7500 Du        
   5969 ****       -14.7500 -19.7500  31.0000 Du        
   5970 ****       -14.7500 -19.7500  31.2500 Du        
   5971 ****       -14.7500 -19.7500  31.5000 Du        
   5972 ****       -14.7500 -19.7500  31.7500 Du        
   5973 ****       -14.7500 -19.5000  30.5000 Du        
   5974 ****       -14.7500 -19.5000  30.7500 Du        
   5975 ****       -14.7500 -19.5000  31.0000 Du        
   5976 ****       -14.7500 -19.5000  31.2500 Du        
   5977 ****       -14.7500 -19.5000  31.5000 Du        
   5978 ****       -14.7500 -19.2500  30.5000 Du        
   5979 ****       -14.7500 -19.2500  30.7500 Du        
   5980 ****       -14.7500 -19.2500  31.0000 Du        
   5981 ****       -14.7500 -19.2500  31.2500 Du        
   5982 ****       -14.7500 -19.0000  30.5000 Du        
   5983 ****       -14.7500 -19.0000  30.7500 Du        
   5984 ****       -14.7500 -19.0000  31.0000 Du        
   5985 ****       -14.7500 -19.0000  31.2500 Du        
   5986 ****       -14.7500 -18.7500  30.5000 Du        
   5987 ****       -14.7500 -18.7500  30.7500 Du        
   5988 ****       -14.7500 -18.7500  31.0000 Du        
   5989 ****       -14.7500 -18.7500  31.2500 Du        
   5990 ****       -14.7500 -18.5000  30.7500 Du        
   5991 ****       -14.7500 -18.2500  30.7500 Du        
   5992 ****       -14.7500 -18.2500  31.0000 Du        
   5993 ****       -14.7500 -18.0000  30.7500 Du        
   5994 ****       -14.7500  -8.0000  22.5000 Du        
   5995 ****       -14.7500  -8.0000  22.7500 Du        
   5996 ****       -14.7500  -8.0000  23.0000 Du        
   5997 ****       -14.7500  -7.7500  22.5000 Du        
   5998 ****       -14.7500  -7.7500  22.7500 Du        
   5999 ****       -14.7500  -7.7500  23.0000 Du        
   6000 ****       -14.7500  -7.7500  23.2500 Du        
   6001 ****       -14.7500  -7.5000  22.5000 Du        
   6002 ****       -14.7500  -7.5000  22.7500 Du        
   6003 ****       -14.7500  -7.5000  23.0000 Du        
   6004 ****       -14.7500  -7.5000  23.2500 Du        
   6005 ****       -14.7500  -7.2500  22.5000 Du        
   6006 ****       -14.7500  -7.2500  22.7500 Du        
   6007 ****       -14.7500  -7.2500  23.0000 Du        
   6008 ****       -14.7500  -7.2500  23.2500 Du        
   6009 ****       -14.7500  -7.2500  23.5000 Du        
   6010 ****       -14.7500  -7.0000  22.2500 Du        
   6011 ****       -14.7500  -7.0000  22.5000 Du        
   6012 ****       -14.7500  -7.0000  22.7500 Du        
   6013 ****       -14.7500  -7.0000  23.0000 Du        
   6014 ****       -14.7500  -7.0000  23.2500 Du        
   6015 ****       -14.7500  -6.7500  22.2500 Du        
   6016 ****       -14.7500  -6.7500  22.5000 Du        
   6017 ****       -14.7500  -6.7500  22.7500 Du        
   6018 ****       -14.7500  -6.7500  23.0000 Du        
   6019 ****       -14.7500  -6.7500  23.2500 Du        
   6020 ****       -14.7500  -6.5000  22.0000 Du        
   6021 ****       -14.7500  -6.5000  22.2500 Du        
   6022 ****       -14.7500  -6.5000  22.5000 Du        
   6023 ****       -14.7500  -6.5000  22.7500 Du        
   6024 ****       -14.7500  -6.5000  23.0000 Du        
   6025 ****       -14.7500  -6.5000  29.0000 Du        
   6026 ****       -14.7500  -6.5000  29.2500 Du        
   6027 ****       -14.7500  -6.2500  21.7500 Du        
   6028 ****       -14.7500  -6.2500  22.0000 Du        
   6029 ****       -14.7500  -6.2500  22.2500 Du        
   6030 ****       -14.7500  -6.2500  22.5000 Du        
   6031 ****       -14.7500  -6.2500  22.7500 Du        
   6032 ****       -14.7500  -6.2500  23.0000 Du        
   6033 ****       -14.7500  -6.2500  28.7500 Du        
   6034 ****       -14.7500  -6.2500  29.0000 Du        
   6035 ****       -14.7500  -6.2500  29.2500 Du        
   6036 ****       -14.7500  -6.2500  29.5000 Du        
   6037 ****       -14.7500  -6.0000  21.5000 Du        
   6038 ****       -14.7500  -6.0000  21.7500 Du        
   6039 ****       -14.7500  -6.0000  22.0000 Du        
   6040 ****       -14.7500  -6.0000  22.2500 Du        
   6041 ****       -14.7500  -6.0000  22.5000 Du        
   6042 ****       -14.7500  -6.0000  22.7500 Du        
   6043 ****       -14.7500  -6.0000  23.0000 Du        
   6044 ****       -14.7500  -6.0000  28.7500 Du        
   6045 ****       -14.7500  -6.0000  29.0000 Du        
   6046 ****       -14.7500  -6.0000  29.2500 Du        
   6047 ****       -14.7500  -6.0000  29.5000 Du        
   6048 ****       -14.7500  -6.0000  29.7500 Du        
   6049 ****       -14.7500  -5.7500  21.5000 Du        
   6050 ****       -14.7500  -5.7500  21.7500 Du        
   6051 ****       -14.7500  -5.7500  22.0000 Du        
   6052 ****       -14.7500  -5.7500  22.2500 Du        
   6053 ****       -14.7500  -5.7500  22.5000 Du        
   6054 ****       -14.7500  -5.7500  22.7500 Du        
   6055 ****       -14.7500  -5.7500  28.7500 Du        
   6056 ****       -14.7500  -5.7500  29.0000 Du        
   6057 ****       -14.7500  -5.7500  29.2500 Du        
   6058 ****       -14.7500  -5.7500  29.5000 Du        
   6059 ****       -14.7500  -5.7500  29.7500 Du        
   6060 ****       -14.7500  -5.5000  21.5000 Du        
   6061 ****       -14.7500  -5.5000  21.7500 Du        
   6062 ****       -14.7500  -5.5000  22.0000 Du        
   6063 ****       -14.7500  -5.5000  22.2500 Du        
   6064 ****       -14.7500  -5.5000  22.5000 Du        
   6065 ****       -14.7500  -5.5000  22.7500 Du        
   6066 ****       -14.7500  -5.5000  29.0000 Du        
   6067 ****       -14.7500  -5.5000  29.2500 Du        
   6068 ****       -14.7500  -5.5000  29.5000 Du        
   6069 ****       -14.7500  -5.5000  29.7500 Du        
   6070 ****       -14.7500  -5.5000  30.0000 Du        
   6071 ****       -14.7500  -5.2500  21.7500 Du        
   6072 ****       -14.7500  -5.2500  22.0000 Du        
   6073 ****       -14.7500  -5.2500  22.2500 Du        
   6074 ****       -14.7500  -5.2500  22.5000 Du        
   6075 ****       -14.7500  -5.2500  22.7500 Du        
   6076 ****       -14.7500  -5.2500  29.0000 Du        
   6077 ****       -14.7500  -5.2500  29.2500 Du        
   6078 ****       -14.7500  -5.2500  29.5000 Du        
   6079 ****       -14.7500  -5.2500  29.7500 Du        
   6080 ****       -14.7500  -5.2500  30.0000 Du        
   6081 ****       -14.7500  -5.0000  21.7500 Du        
   6082 ****       -14.7500  -5.0000  22.0000 Du        
   6083 ****       -14.7500  -5.0000  22.2500 Du        
   6084 ****       -14.7500  -5.0000  22.5000 Du        
   6085 ****       -14.7500  -5.0000  29.0000 Du        
   6086 ****       -14.7500  -5.0000  29.2500 Du        
   6087 ****       -14.7500  -5.0000  29.5000 Du        
   6088 ****       -14.7500  -5.0000  29.7500 Du        
   6089 ****       -14.7500  -5.0000  30.0000 Du        
   6090 ****       -14.7500  -5.0000  30.2500 Du        
   6091 ****       -14.7500  -4.7500  22.0000 Du        
   6092 ****       -14.7500  -4.7500  22.2500 Du        
   6093 ****       -14.7500  -4.7500  29.0000 Du        
   6094 ****       -14.7500  -4.7500  29.2500 Du        
   6095 ****       -14.7500  -4.7500  29.5000 Du        
   6096 ****       -14.7500  -4.7500  29.7500 Du        
   6097 ****       -14.7500  -4.7500  30.0000 Du        
   6098 ****       -14.7500  -4.7500  30.2500 Du        
   6099 ****       -14.7500  -4.7500  30.5000 Du        
   6100 ****       -14.7500  -4.5000  29.0000 Du        
   6101 ****       -14.7500  -4.5000  29.2500 Du        
   6102 ****       -14.7500  -4.5000  29.5000 Du        
   6103 ****       -14.7500  -4.5000  29.7500 Du        
   6104 ****       -14.7500  -4.5000  30.0000 Du        
   6105 ****       -14.7500  -4.5000  30.2500 Du        
   6106 ****       -14.7500  -4.5000  30.5000 Du        
   6107 ****       -14.7500  -4.5000  30.7500 Du        
   6108 ****       -14.7500  -4.2500  29.0000 Du        
   6109 ****       -14.7500  -4.2500  29.2500 Du        
   6110 ****       -14.7500  -4.2500  29.5000 Du        
   6111 ****       -14.7500  -4.2500  29.7500 Du        
   6112 ****       -14.7500  -4.2500  30.0000 Du        
   6113 ****       -14.7500  -4.2500  30.2500 Du        
   6114 ****       -14.7500  -4.2500  30.5000 Du        
   6115 ****       -14.7500  -4.2500  30.7500 Du        
   6116 ****       -14.7500  -4.0000  29.0000 Du        
   6117 ****       -14.7500  -4.0000  29.2500 Du        
   6118 ****       -14.7500  -4.0000  29.5000 Du        
   6119 ****       -14.7500  -4.0000  29.7500 Du        
   6120 ****       -14.7500  -4.0000  30.0000 Du        
   6121 ****       -14.7500  -4.0000  30.2500 Du        
   6122 ****       -14.7500  -4.0000  30.5000 Du        
   6123 ****       -14.7500  -4.0000  30.7500 Du        
   6124 ****       -14.7500  -3.7500  29.0000 Du        
   6125 ****       -14.7500  -3.7500  29.2500 Du        
   6126 ****       -14.7500  -3.7500  29.5000 Du        
   6127 ****       -14.7500  -3.7500  29.7500 Du        
   6128 ****       -14.7500  -3.7500  30.0000 Du        
   6129 ****       -14.7500  -3.7500  30.2500 Du        
   6130 ****       -14.7500  -3.7500  30.5000 Du        
   6131 ****       -14.7500  -3.7500  30.7500 Du        
   6132 ****       -14.7500  -3.5000  29.0000 Du        
   6133 ****       -14.7500  -3.5000  29.2500 Du        
   6134 ****       -14.7500  -3.5000  29.5000 Du        
   6135 ****       -14.7500  -3.5000  29.7500 Du        
   6136 ****       -14.7500  -3.5000  30.0000 Du        
   6137 ****       -14.7500  -3.5000  30.2500 Du        
   6138 ****       -14.7500  -3.5000  30.5000 Du        
   6139 ****       -14.7500  -3.2500  28.7500 Du        
   6140 ****       -14.7500  -3.2500  29.0000 Du        
   6141 ****       -14.7500  -3.2500  29.2500 Du        
   6142 ****       -14.7500  -3.2500  29.5000 Du        
   6143 ****       -14.7500  -3.2500  29.7500 Du        
   6144 ****       -14.7500  -3.2500  30.0000 Du        
   6145 ****       -14.7500  -3.2500  30.2500 Du        
   6146 ****       -14.7500  -3.0000  28.7500 Du        
   6147 ****       -14.7500  -3.0000  29.0000 Du        
   6148 ****       -14.7500  -3.0000  29.2500 Du        
   6149 ****       -14.7500  -3.0000  29.5000 Du        
   6150 ****       -14.7500  -3.0000  29.7500 Du        
   6151 ****       -14.7500  -3.0000  30.0000 Du        
   6152 ****       -14.7500  -2.7500  29.0000 Du        
   6153 ****       -14.7500  -2.7500  29.2500 Du        
   6154 ****       -14.7500  -2.5000  24.0000 Du        
   6155 ****       -14.7500  -2.2500  23.7500 Du        
   6156 ****       -14.7500  -2.2500  24.0000 Du        
   6157 ****       -14.7500  -2.2500  24.2500 Du        
   6158 ****       -14.7500  -2.0000  23.7500 Du        
   6159 ****       -14.7500  -2.0000  24.0000 Du        
   6160 ****       -14.7500  -2.0000  24.2500 Du        
   6161 ****       -14.7500  -1.7500  23.2500 Du        
   6162 ****       -14.7500  -1.7500  23.5000 Du        
   6163 ****       -14.7500  -1.7500  23.7500 Du        
   6164 ****       -14.7500  -1.7500  24.0000 Du        
   6165 ****       -14.7500  -1.7500  24.2500 Du        
   6166 ****       -14.7500  -1.5000  23.2500 Du        
   6167 ****       -14.7500  -1.5000  23.5000 Du        
   6168 ****       -14.7500  -1.5000  23.7500 Du        
   6169 ****       -14.7500  -1.5000  24.0000 Du        
   6170 ****       -14.7500  -1.5000  24.2500 Du        
   6171 ****       -14.7500  -1.2500  23.2500 Du        
   6172 ****       -14.7500  -1.2500  23.5000 Du        
   6173 ****       -14.7500  -1.2500  23.7500 Du        
   6174 ****       -14.7500  -1.2500  24.0000 Du        
   6175 ****       -14.7500  -1.2500  24.2500 Du        
   6176 ****       -14.7500  -1.0000  23.0000 Du        
   6177 ****       -14.7500  -1.0000  23.2500 Du        
   6178 ****       -14.7500  -1.0000  23.5000 Du        
   6179 ****       -14.7500  -1.0000  23.7500 Du        
   6180 ****       -14.7500  -1.0000  24.0000 Du        
   6181 ****       -14.7500  -1.0000  24.2500 Du        
   6182 ****       -14.7500  -0.7500  23.0000 Du        
   6183 ****       -14.7500  -0.7500  23.2500 Du        
   6184 ****       -14.7500  -0.7500  23.5000 Du        
   6185 ****       -14.7500  -0.7500  23.7500 Du        
   6186 ****       -14.7500  -0.7500  24.0000 Du        
   6187 ****       -14.7500  -0.7500  24.2500 Du        
   6188 ****       -14.7500  -0.5000  23.0000 Du        
   6189 ****       -14.7500  -0.5000  23.2500 Du        
   6190 ****       -14.7500  -0.5000  23.5000 Du        
   6191 ****       -14.7500  -0.5000  23.7500 Du        
   6192 ****       -14.7500  -0.5000  24.0000 Du        
   6193 ****       -14.7500  -0.5000  24.2500 Du        
   6194 ****       -14.7500  -0.2500  22.7500 Du        
   6195 ****       -14.7500  -0.2500  23.0000 Du        
   6196 ****       -14.7500  -0.2500  23.2500 Du        
   6197 ****       -14.7500  -0.2500  23.5000 Du        
   6198 ****       -14.7500  -0.2500  23.7500 Du        
   6199 ****       -14.7500  -0.2500  24.0000 Du        
   6200 ****       -14.7500  -0.2500  24.2500 Du        
   6201 ****       -14.7500   0.0000  22.7500 Du        
   6202 ****       -14.7500   0.0000  23.0000 Du        
   6203 ****       -14.7500   0.0000  23.2500 Du        
   6204 ****       -14.7500   0.0000  23.5000 Du        
   6205 ****       -14.7500   0.0000  23.7500 Du        
   6206 ****       -14.7500   0.0000  24.0000 Du        
   6207 ****       -14.7500   0.0000  24.2500 Du        
   6208 ****       -14.7500   0.2500  22.2500 Du        
   6209 ****       -14.7500   0.2500  22.5000 Du        
   6210 ****       -14.7500   0.2500  22.7500 Du        
   6211 ****       -14.7500   0.2500  23.0000 Du        
   6212 ****       -14.7500   0.2500  23.2500 Du        
   6213 ****       -14.7500   0.2500  23.5000 Du        
   6214 ****       -14.7500   0.2500  23.7500 Du        
   6215 ****       -14.7500   0.2500  24.0000 Du        
   6216 ****       -14.7500   0.5000  22.0000 Du        
   6217 ****       -14.7500   0.5000  22.2500 Du        
   6218 ****       -14.7500   0.5000  22.5000 Du        
   6219 ****       -14.7500   0.5000  22.7500 Du        
   6220 ****       -14.7500   0.5000  23.0000 Du        
   6221 ****       -14.7500   0.5000  23.2500 Du        
   6222 ****       -14.7500   0.7500  21.7500 Du        
   6223 ****       -14.7500   0.7500  22.0000 Du        
   6224 ****       -14.7500   0.7500  22.2500 Du        
   6225 ****       -14.7500   0.7500  22.5000 Du        
   6226 ****       -14.7500   0.7500  22.7500 Du        
   6227 ****       -14.7500   0.7500  23.0000 Du        
   6228 ****       -14.7500   0.7500  23.2500 Du        
   6229 ****       -14.7500   1.0000  21.7500 Du        
   6230 ****       -14.7500   1.0000  22.0000 Du        
   6231 ****       -14.7500   1.0000  22.2500 Du        
   6232 ****       -14.7500   1.0000  22.5000 Du        
   6233 ****       -14.7500   1.0000  22.7500 Du        
   6234 ****       -14.7500   1.0000  23.0000 Du        
   6235 ****       -14.7500   1.0000  23.2500 Du        
   6236 ****       -14.7500   1.2500  21.7500 Du        
   6237 ****       -14.7500   1.2500  22.0000 Du        
   6238 ****       -14.7500   1.2500  22.2500 Du        
   6239 ****       -14.7500   1.2500  22.5000 Du        
   6240 ****       -14.7500   1.2500  22.7500 Du        
   6241 ****       -14.7500   1.2500  23.0000 Du        
   6242 ****       -14.7500   1.2500  23.2500 Du        
   6243 ****       -14.7500   1.5000  21.7500 Du        
   6244 ****       -14.7500   1.5000  22.0000 Du        
   6245 ****       -14.7500   1.5000  22.2500 Du        
   6246 ****       -14.7500   1.7500  21.7500 Du        
   6247 ****       -14.7500   1.7500  22.0000 Du        
   6248 ****       -14.7500   1.7500  22.2500 Du        
   6249 ****       -14.7500   2.0000  22.0000 Du        
   6250 ****       -14.7500   2.0000  22.2500 Du        
   6251 ****       -14.7500   2.2500  22.0000 Du        
   6252 ****       -14.7500   2.2500  22.2500 Du        
   6253 ****       -14.7500   4.5000  15.2500 Du        
   6254 ****       -14.7500   4.5000  15.5000 Du        
   6255 ****       -14.7500   4.5000  15.7500 Du        
   6256 ****       -14.7500   4.5000  16.0000 Du        
   6257 ****       -14.7500   4.5000  16.2500 Du        
   6258 ****       -14.7500   4.7500  13.7500 Du        
   6259 ****       -14.7500   4.7500  14.0000 Du        
   6260 ****       -14.7500   4.7500  14.2500 Du        
   6261 ****       -14.7500   4.7500  14.5000 Du        
   6262 ****       -14.7500   4.7500  14.7500 Du        
   6263 ****       -14.7500   4.7500  15.0000 Du        
   6264 ****       -14.7500   4.7500  15.2500 Du        
   6265 ****       -14.7500   4.7500  15.5000 Du        
   6266 ****       -14.7500   4.7500  15.7500 Du        
   6267 ****       -14.7500   4.7500  16.0000 Du        
   6268 ****       -14.7500   4.7500  16.2500 Du        
   6269 ****       -14.7500   5.0000  13.7500 Du        
   6270 ****       -14.7500   5.0000  14.0000 Du        
   6271 ****       -14.7500   5.0000  14.2500 Du        
   6272 ****       -14.7500   5.0000  14.5000 Du        
   6273 ****       -14.7500   5.0000  14.7500 Du        
   6274 ****       -14.7500   5.0000  15.0000 Du        
   6275 ****       -14.7500   5.0000  15.2500 Du        
   6276 ****       -14.7500   5.0000  15.5000 Du        
   6277 ****       -14.7500   5.0000  15.7500 Du        
   6278 ****       -14.7500   5.0000  16.0000 Du        
   6279 ****       -14.7500   5.0000  16.2500 Du        
   6280 ****       -14.7500   5.0000  16.5000 Du        
   6281 ****       -14.7500   5.0000  16.7500 Du        
   6282 ****       -14.7500   5.2500  13.5000 Du        
   6283 ****       -14.7500   5.2500  13.7500 Du        
   6284 ****       -14.7500   5.2500  14.0000 Du        
   6285 ****       -14.7500   5.2500  14.2500 Du        
   6286 ****       -14.7500   5.2500  14.5000 Du        
   6287 ****       -14.7500   5.2500  14.7500 Du        
   6288 ****       -14.7500   5.2500  15.0000 Du        
   6289 ****       -14.7500   5.2500  15.2500 Du        
   6290 ****       -14.7500   5.2500  15.5000 Du        
   6291 ****       -14.7500   5.2500  15.7500 Du        
   6292 ****       -14.7500   5.2500  16.0000 Du        
   6293 ****       -14.7500   5.2500  16.2500 Du        
   6294 ****       -14.7500   5.2500  16.5000 Du        
   6295 ****       -14.7500   5.5000  13.7500 Du        
   6296 ****       -14.7500   5.5000  14.0000 Du        
   6297 ****       -14.7500   5.5000  14.2500 Du        
   6298 ****       -14.7500   5.5000  14.5000 Du        
   6299 ****       -14.7500   5.5000  14.7500 Du        
   6300 ****       -14.7500   5.5000  15.0000 Du        
   6301 ****       -14.7500   5.5000  15.2500 Du        
   6302 ****       -14.7500   5.5000  15.5000 Du        
   6303 ****       -14.7500   5.5000  15.7500 Du        
   6304 ****       -14.7500   5.5000  16.0000 Du        
   6305 ****       -14.7500   5.5000  16.2500 Du        
   6306 ****       -14.7500   5.7500  13.7500 Du        
   6307 ****       -14.7500   5.7500  14.0000 Du        
   6308 ****       -14.7500   5.7500  14.2500 Du        
   6309 ****       -14.7500   5.7500  14.5000 Du        
   6310 ****       -14.7500   5.7500  14.7500 Du        
   6311 ****       -14.7500   5.7500  15.0000 Du        
   6312 ****       -14.7500   5.7500  15.2500 Du        
   6313 ****       -14.7500   5.7500  15.5000 Du        
   6314 ****       -14.7500   5.7500  15.7500 Du        
   6315 ****       -14.7500   5.7500  16.0000 Du        
   6316 ****       -14.7500   5.7500  16.2500 Du        
   6317 ****       -14.7500   6.0000  13.7500 Du        
   6318 ****       -14.7500   6.0000  14.0000 Du        
   6319 ****       -14.7500   6.0000  14.2500 Du        
   6320 ****       -14.7500   6.0000  14.5000 Du        
   6321 ****       -14.7500   6.0000  14.7500 Du        
   6322 ****       -14.7500   6.0000  15.0000 Du        
   6323 ****       -14.7500   6.0000  15.2500 Du        
   6324 ****       -14.7500   6.0000  15.5000 Du        
   6325 ****       -14.7500   6.0000  15.7500 Du        
   6326 ****       -14.7500   6.0000  16.0000 Du        
   6327 ****       -14.7500   6.2500  14.0000 Du        
   6328 ****       -14.7500   6.2500  14.2500 Du        
   6329 ****       -14.7500   6.2500  14.5000 Du        
   6330 ****       -14.7500   6.2500  14.7500 Du        
   6331 ****       -14.7500   6.2500  15.0000 Du        
   6332 ****       -14.7500   6.2500  15.2500 Du        
   6333 ****       -14.7500   6.5000  14.2500 Du        
   6334 ****       -14.7500   6.5000  14.5000 Du        
   6335 ****       -14.7500   6.5000  14.7500 Du        
   6336 ****       -14.7500   6.5000  15.0000 Du        
   6337 ****       -14.7500   6.5000  15.2500 Du        
   6338 ****       -14.7500   6.7500  14.2500 Du        
   6339 ****       -14.7500   6.7500  14.5000 Du        
   6340 ****       -14.7500   6.7500  14.7500 Du        
   6341 ****       -14.7500   6.7500  15.0000 Du        
   6342 ****       -14.7500   7.0000  14.2500 Du        
   6343 ****       -14.7500  11.5000  22.2500 Du        
   6344 ****       -14.7500  11.5000  22.5000 Du        
   6345 ****       -14.7500  11.5000  22.7500 Du        
   6346 ****       -14.7500  11.5000  23.0000 Du        
   6347 ****       -14.7500  11.5000  23.2500 Du        
   6348 ****       -14.7500  11.7500  22.0000 Du        
   6349 ****       -14.7500  11.7500  22.2500 Du        
   6350 ****       -14.7500  11.7500  22.5000 Du        
   6351 ****       -14.7500  11.7500  22.7500 Du        
   6352 ****       -14.7500  11.7500  23.0000 Du        
   6353 ****       -14.7500  11.7500  23.2500 Du        
   6354 ****       -14.7500  12.0000  22.0000 Du        
   6355 ****       -14.7500  12.0000  22.2500 Du        
   6356 ****       -14.7500  12.0000  22.5000 Du        
   6357 ****       -14.7500  12.0000  22.7500 Du        
   6358 ****       -14.7500  12.0000  23.0000 Du        
   6359 ****       -14.7500  12.0000  23.2500 Du        
   6360 ****       -14.7500  12.2500  22.5000 Du        
   6361 ****       -14.7500  12.2500  22.7500 Du        
   6362 ****       -14.7500  12.2500  23.0000 Du        
   6363 ****       -14.7500  12.2500  23.2500 Du        
   6364 ****       -14.7500  12.2500  23.5000 Du        
   6365 ****       -14.7500  12.2500  23.7500 Du        
   6366 ****       -14.7500  12.2500  24.0000 Du        
   6367 ****       -14.7500  12.5000  23.2500 Du        
   6368 ****       -14.7500  12.5000  23.5000 Du        
   6369 ****       -14.7500  12.5000  23.7500 Du        
   6370 ****       -14.5000 -20.5000  31.0000 Du        
   6371 ****       -14.5000 -20.2500  30.7500 Du        
   6372 ****       -14.5000 -20.2500  31.0000 Du        
   6373 ****       -14.5000 -20.2500  31.2500 Du        
   6374 ****       -14.5000 -20.0000  30.7500 Du        
   6375 ****       -14.5000 -20.0000  31.0000 Du        
   6376 ****       -14.5000 -20.0000  31.2500 Du        
   6377 ****       -14.5000 -19.7500  30.7500 Du        
   6378 ****       -14.5000 -19.7500  31.0000 Du        
   6379 ****       -14.5000 -19.7500  31.2500 Du        
   6380 ****       -14.5000 -19.5000  30.7500 Du        
   6381 ****       -14.5000 -19.5000  31.0000 Du        
   6382 ****       -14.5000 -19.5000  31.2500 Du        
   6383 ****       -14.5000 -19.2500  30.7500 Du        
   6384 ****       -14.5000 -19.2500  31.0000 Du        
   6385 ****       -14.5000 -19.2500  31.2500 Du        
   6386 ****       -14.5000 -19.0000  30.7500 Du        
   6387 ****       -14.5000 -19.0000  31.0000 Du        
   6388 ****       -14.5000  -8.2500  22.2500 Du        
   6389 ****       -14.5000  -8.2500  22.5000 Du        
   6390 ****       -14.5000  -8.2500  22.7500 Du        
   6391 ****       -14.5000  -8.0000  22.2500 Du        
   6392 ****       -14.5000  -8.0000  22.5000 Du        
   6393 ****       -14.5000  -8.0000  22.7500 Du        
   6394 ****       -14.5000  -8.0000  23.0000 Du        
   6395 ****       -14.5000  -7.7500  22.2500 Du        
   6396 ****       -14.5000  -7.7500  22.5000 Du        
   6397 ****       -14.5000  -7.7500  22.7500 Du        
   6398 ****       -14.5000  -7.7500  23.0000 Du        
   6399 ****       -14.5000  -7.7500  23.2500 Du        
   6400 ****       -14.5000  -7.7500  23.5000 Du        
   6401 ****       -14.5000  -7.5000  22.2500 Du        
   6402 ****       -14.5000  -7.5000  22.5000 Du        
   6403 ****       -14.5000  -7.5000  22.7500 Du        
   6404 ****       -14.5000  -7.5000  23.0000 Du        
   6405 ****       -14.5000  -7.5000  23.2500 Du        
   6406 ****       -14.5000  -7.5000  23.5000 Du        
   6407 ****       -14.5000  -7.2500  22.0000 Du        
   6408 ****       -14.5000  -7.2500  22.2500 Du        
   6409 ****       -14.5000  -7.2500  22.5000 Du        
   6410 ****       -14.5000  -7.2500  22.7500 Du        
   6411 ****       -14.5000  -7.2500  23.0000 Du        
   6412 ****       -14.5000  -7.2500  23.2500 Du        
   6413 ****       -14.5000  -7.2500  23.5000 Du        
   6414 ****       -14.5000  -7.2500  23.7500 Du        
   6415 ****       -14.5000  -7.0000  22.0000 Du        
   6416 ****       -14.5000  -7.0000  22.2500 Du        
   6417 ****       -14.5000  -7.0000  22.5000 Du        
   6418 ****       -14.5000  -7.0000  22.7500 Du        
   6419 ****       -14.5000  -7.0000  23.0000 Du        
   6420 ****       -14.5000  -7.0000  23.2500 Du        
   6421 ****       -14.5000  -7.0000  23.5000 Du        
   6422 ****       -14.5000  -7.0000  23.7500 Du        
   6423 ****       -14.5000  -6.7500  21.7500 Du        
   6424 ****       -14.5000  -6.7500  22.0000 Du        
   6425 ****       -14.5000  -6.7500  22.2500 Du        
   6426 ****       -14.5000  -6.7500  22.5000 Du        
   6427 ****       -14.5000  -6.7500  22.7500 Du        
   6428 ****       -14.5000  -6.7500  23.0000 Du        
   6429 ****       -14.5000  -6.7500  23.2500 Du        
   6430 ****       -14.5000  -6.7500  23.5000 Du        
   6431 ****       -14.5000  -6.5000  21.5000 Du        
   6432 ****       -14.5000  -6.5000  21.7500 Du        
   6433 ****       -14.5000  -6.5000  22.0000 Du        
   6434 ****       -14.5000  -6.5000  22.2500 Du        
   6435 ****       -14.5000  -6.5000  22.5000 Du        
   6436 ****       -14.5000  -6.5000  22.7500 Du        
   6437 ****       -14.5000  -6.5000  23.0000 Du        
   6438 ****       -14.5000  -6.5000  23.2500 Du        
   6439 ****       -14.5000  -6.2500  21.2500 Du        
   6440 ****       -14.5000  -6.2500  21.5000 Du        
   6441 ****       -14.5000  -6.2500  21.7500 Du        
   6442 ****       -14.5000  -6.2500  22.0000 Du        
   6443 ****       -14.5000  -6.2500  22.2500 Du        
   6444 ****       -14.5000  -6.2500  22.5000 Du        
   6445 ****       -14.5000  -6.2500  22.7500 Du        
   6446 ****       -14.5000  -6.2500  23.0000 Du        
   6447 ****       -14.5000  -6.2500  23.2500 Du        
   6448 ****       -14.5000  -6.2500  29.0000 Du        
   6449 ****       -14.5000  -6.2500  29.2500 Du        
   6450 ****       -14.5000  -6.0000  21.2500 Du        
   6451 ****       -14.5000  -6.0000  21.5000 Du        
   6452 ****       -14.5000  -6.0000  21.7500 Du        
   6453 ****       -14.5000  -6.0000  22.0000 Du        
   6454 ****       -14.5000  -6.0000  22.2500 Du        
   6455 ****       -14.5000  -6.0000  22.5000 Du        
   6456 ****       -14.5000  -6.0000  22.7500 Du        
   6457 ****       -14.5000  -6.0000  23.0000 Du        
   6458 ****       -14.5000  -6.0000  23.2500 Du        
   6459 ****       -14.5000  -6.0000  29.0000 Du        
   6460 ****       -14.5000  -6.0000  29.2500 Du        
   6461 ****       -14.5000  -6.0000  29.5000 Du        
   6462 ****       -14.5000  -5.7500  21.2500 Du        
   6463 ****       -14.5000  -5.7500  21.5000 Du        
   6464 ****       -14.5000  -5.7500  21.7500 Du        
   6465 ****       -14.5000  -5.7500  22.0000 Du        
   6466 ****       -14.5000  -5.7500  22.2500 Du        
   6467 ****       -14.5000  -5.7500  22.5000 Du        
   6468 ****       -14.5000  -5.7500  22.7500 Du        
   6469 ****       -14.5000  -5.7500  23.0000 Du        
   6470 ****       -14.5000  -5.7500  29.0000 Du        
   6471 ****       -14.5000  -5.7500  29.2500 Du        
   6472 ****       -14.5000  -5.7500  29.5000 Du        
   6473 ****       -14.5000  -5.7500  29.7500 Du        
   6474 ****       -14.5000  -5.5000  21.5000 Du        
   6475 ****       -14.5000  -5.5000  21.7500 Du        
   6476 ****       -14.5000  -5.5000  22.0000 Du        
   6477 ****       -14.5000  -5.5000  22.2500 Du        
   6478 ****       -14.5000  -5.5000  22.5000 Du        
   6479 ****       -14.5000  -5.5000  22.7500 Du        
   6480 ****       -14.5000  -5.5000  23.0000 Du        
   6481 ****       -14.5000  -5.5000  29.2500 Du        
   6482 ****       -14.5000  -5.5000  29.5000 Du        
   6483 ****       -14.5000  -5.5000  29.7500 Du        
   6484 ****       -14.5000  -5.2500  21.7500 Du        
   6485 ****       -14.5000  -5.2500  22.0000 Du        
   6486 ****       -14.5000  -5.2500  22.2500 Du        
   6487 ****       -14.5000  -5.2500  22.5000 Du        
   6488 ****       -14.5000  -5.2500  22.7500 Du        
   6489 ****       -14.5000  -5.2500  23.0000 Du        
   6490 ****       -14.5000  -5.2500  29.2500 Du        
   6491 ****       -14.5000  -5.2500  29.5000 Du        
   6492 ****       -14.5000  -5.2500  29.7500 Du        
   6493 ****       -14.5000  -5.2500  30.0000 Du        
   6494 ****       -14.5000  -5.0000  22.0000 Du        
   6495 ****       -14.5000  -5.0000  22.2500 Du        
   6496 ****       -14.5000  -5.0000  22.5000 Du        
   6497 ****       -14.5000  -5.0000  22.7500 Du        
   6498 ****       -14.5000  -5.0000  23.0000 Du        
   6499 ****       -14.5000  -5.0000  29.2500 Du        
   6500 ****       -14.5000  -5.0000  29.5000 Du        
   6501 ****       -14.5000  -5.0000  29.7500 Du        
   6502 ****       -14.5000  -5.0000  30.0000 Du        
   6503 ****       -14.5000  -5.0000  30.2500 Du        
   6504 ****       -14.5000  -5.0000  30.5000 Du        
   6505 ****       -14.5000  -4.7500  22.2500 Du        
   6506 ****       -14.5000  -4.7500  22.5000 Du        
   6507 ****       -14.5000  -4.7500  22.7500 Du        
   6508 ****       -14.5000  -4.7500  29.2500 Du        
   6509 ****       -14.5000  -4.7500  29.5000 Du        
   6510 ****       -14.5000  -4.7500  29.7500 Du        
   6511 ****       -14.5000  -4.7500  30.0000 Du        
   6512 ****       -14.5000  -4.7500  30.2500 Du        
   6513 ****       -14.5000  -4.7500  30.5000 Du        
   6514 ****       -14.5000  -4.5000  29.2500 Du        
   6515 ****       -14.5000  -4.5000  29.5000 Du        
   6516 ****       -14.5000  -4.5000  29.7500 Du        
   6517 ****       -14.5000  -4.5000  30.0000 Du        
   6518 ****       -14.5000  -4.5000  30.2500 Du        
   6519 ****       -14.5000  -4.5000  30.5000 Du        
   6520 ****       -14.5000  -4.5000  30.7500 Du        
   6521 ****       -14.5000  -4.2500  29.2500 Du        
   6522 ****       -14.5000  -4.2500  29.5000 Du        
   6523 ****       -14.5000  -4.2500  29.7500 Du        
   6524 ****       -14.5000  -4.2500  30.0000 Du        
   6525 ****       -14.5000  -4.2500  30.2500 Du        
   6526 ****       -14.5000  -4.2500  30.5000 Du        
   6527 ****       -14.5000  -4.2500  30.7500 Du        
   6528 ****       -14.5000  -4.0000  29.2500 Du        
   6529 ****       -14.5000  -4.0000  29.5000 Du        
   6530 ****       -14.5000  -4.0000  29.7500 Du        
   6531 ****       -14.5000  -4.0000  30.0000 Du        
   6532 ****       -14.5000  -4.0000  30.2500 Du        
   6533 ****       -14.5000  -4.0000  30.5000 Du        
   6534 ****       -14.5000  -4.0000  30.7500 Du        
   6535 ****       -14.5000  -3.7500  29.5000 Du        
   6536 ****       -14.5000  -3.7500  29.7500 Du        
   6537 ****       -14.5000  -3.7500  30.0000 Du        
   6538 ****       -14.5000  -3.7500  30.2500 Du        
   6539 ****       -14.5000  -3.7500  30.5000 Du        
   6540 ****       -14.5000  -3.7500  30.7500 Du        
   6541 ****       -14.5000  -3.5000  29.2500 Du        
   6542 ****       -14.5000  -3.5000  29.5000 Du        
   6543 ****       -14.5000  -3.5000  29.7500 Du        
   6544 ****       -14.5000  -3.5000  30.0000 Du        
   6545 ****       -14.5000  -3.5000  30.2500 Du        
   6546 ****       -14.5000  -3.5000  30.5000 Du        
   6547 ****       -14.5000  -3.2500  29.2500 Du        
   6548 ****       -14.5000  -3.2500  29.5000 Du        
   6549 ****       -14.5000  -3.2500  29.7500 Du        
   6550 ****       -14.5000  -3.2500  30.0000 Du        
   6551 ****       -14.5000  -3.2500  30.2500 Du        
   6552 ****       -14.5000  -3.0000  29.5000 Du        
   6553 ****       -14.5000  -3.0000  29.7500 Du        
   6554 ****       -14.5000  -3.0000  30.0000 Du        
   6555 ****       -14.5000  -2.0000  23.2500 Du        
   6556 ****       -14.5000  -2.0000  24.0000 Du        
   6557 ****       -14.5000  -1.7500  23.0000 Du        
   6558 ****       -14.5000  -1.7500  23.2500 Du        
   6559 ****       -14.5000  -1.5000  23.0000 Du        
   6560 ****       -14.5000  -1.5000  23.2500 Du        
   6561 ****       -14.5000  -1.2500  23.0000 Du        
   6562 ****       -14.5000  -1.2500  23.2500 Du        
   6563 ****       -14.5000  -1.0000  23.0000 Du        
   6564 ****       -14.5000  -1.0000  23.2500 Du        
   6565 ****       -14.5000  -0.7500  22.7500 Du        
   6566 ****       -14.5000  -0.7500  23.0000 Du        
   6567 ****       -14.5000  -0.7500  23.2500 Du        
   6568 ****       -14.5000  -0.5000  22.7500 Du        
   6569 ****       -14.5000  -0.5000  23.0000 Du        
   6570 ****       -14.5000  -0.5000  23.2500 Du        
   6571 ****       -14.5000  -0.2500  22.2500 Du        
   6572 ****       -14.5000  -0.2500  22.5000 Du        
   6573 ****       -14.5000  -0.2500  22.7500 Du        
   6574 ****       -14.5000  -0.2500  23.0000 Du        
   6575 ****       -14.5000  -0.2500  23.2500 Du        
   6576 ****       -14.5000   0.0000  22.0000 Du        
   6577 ****       -14.5000   0.0000  22.2500 Du        
   6578 ****       -14.5000   0.0000  22.5000 Du        
   6579 ****       -14.5000   0.0000  22.7500 Du        
   6580 ****       -14.5000   0.0000  23.0000 Du        
   6581 ****       -14.5000   0.0000  23.2500 Du        
   6582 ****       -14.5000   0.2500  21.7500 Du        
   6583 ****       -14.5000   0.2500  22.0000 Du        
   6584 ****       -14.5000   0.2500  22.2500 Du        
   6585 ****       -14.5000   0.2500  22.5000 Du        
   6586 ****       -14.5000   0.2500  22.7500 Du        
   6587 ****       -14.5000   0.2500  23.0000 Du        
   6588 ****       -14.5000   0.5000  21.5000 Du        
   6589 ****       -14.5000   0.5000  21.7500 Du        
   6590 ****       -14.5000   0.5000  22.0000 Du        
   6591 ****       -14.5000   0.5000  22.2500 Du        
   6592 ****       -14.5000   0.5000  22.5000 Du        
   6593 ****       -14.5000   0.5000  22.7500 Du        
   6594 ****       -14.5000   0.5000  23.0000 Du        
   6595 ****       -14.5000   0.7500  21.5000 Du        
   6596 ****       -14.5000   0.7500  21.7500 Du        
   6597 ****       -14.5000   0.7500  22.0000 Du        
   6598 ****       -14.5000   0.7500  22.2500 Du        
   6599 ****       -14.5000   0.7500  22.5000 Du        
   6600 ****       -14.5000   0.7500  22.7500 Du        
   6601 ****       -14.5000   0.7500  23.0000 Du        
   6602 ****       -14.5000   1.0000  21.5000 Du        
   6603 ****       -14.5000   1.0000  21.7500 Du        
   6604 ****       -14.5000   1.0000  22.0000 Du        
   6605 ****       -14.5000   1.0000  22.2500 Du        
   6606 ****       -14.5000   1.0000  22.5000 Du        
   6607 ****       -14.5000   1.0000  22.7500 Du        
   6608 ****       -14.5000   1.2500  21.5000 Du        
   6609 ****       -14.5000   1.2500  21.7500 Du        
   6610 ****       -14.5000   1.2500  22.0000 Du        
   6611 ****       -14.5000   1.2500  22.2500 Du        
   6612 ****       -14.5000   1.2500  22.5000 Du        
   6613 ****       -14.5000   1.5000  21.5000 Du        
   6614 ****       -14.5000   1.5000  21.7500 Du        
   6615 ****       -14.5000   1.5000  22.0000 Du        
   6616 ****       -14.5000   1.5000  22.2500 Du        
   6617 ****       -14.5000   1.7500  21.5000 Du        
   6618 ****       -14.5000   1.7500  21.7500 Du        
   6619 ****       -14.5000   1.7500  22.0000 Du        
   6620 ****       -14.5000   1.7500  22.2500 Du        
   6621 ****       -14.5000   2.0000  21.7500 Du        
   6622 ****       -14.5000   2.0000  22.0000 Du        
   6623 ****       -14.5000   4.5000  14.7500 Du        
   6624 ****       -14.5000   4.5000  15.0000 Du        
   6625 ****       -14.5000   4.5000  15.2500 Du        
   6626 ****       -14.5000   4.5000  15.5000 Du        
   6627 ****       -14.5000   4.5000  15.7500 Du        
   6628 ****       -14.5000   4.5000  16.0000 Du        
   6629 ****       -14.5000   4.5000  16.2500 Du        
   6630 ****       -14.5000   4.7500  13.7500 Du        
   6631 ****       -14.5000   4.7500  14.0000 Du        
   6632 ****       -14.5000   4.7500  14.2500 Du        
   6633 ****       -14.5000   4.7500  14.5000 Du        
   6634 ****       -14.5000   4.7500  14.7500 Du        
   6635 ****       -14.5000   4.7500  15.0000 Du        
   6636 ****       -14.5000   4.7500  15.2500 Du        
   6637 ****       -14.5000   4.7500  15.5000 Du        
   6638 ****       -14.5000   4.7500  15.7500 Du        
   6639 ****       -14.5000   4.7500  16.0000 Du        
   6640 ****       -14.5000   4.7500  16.2500 Du        
   6641 ****       -14.5000   4.7500  16.5000 Du        
   6642 ****       -14.5000   4.7500  16.7500 Du        
   6643 ****       -14.5000   5.0000  13.5000 Du        
   6644 ****       -14.5000   5.0000  13.7500 Du        
   6645 ****       -14.5000   5.0000  14.0000 Du        
   6646 ****       -14.5000   5.0000  14.2500 Du        
   6647 ****       -14.5000   5.0000  14.5000 Du        
   6648 ****       -14.5000   5.0000  14.7500 Du        
   6649 ****       -14.5000   5.0000  15.0000 Du        
   6650 ****       -14.5000   5.0000  15.2500 Du        
   6651 ****       -14.5000   5.0000  15.5000 Du        
   6652 ****       -14.5000   5.0000  15.7500 Du        
   6653 ****       -14.5000   5.0000  16.0000 Du        
   6654 ****       -14.5000   5.0000  16.2500 Du        
   6655 ****       -14.5000   5.0000  16.5000 Du        
   6656 ****       -14.5000   5.0000  16.7500 Du        
   6657 ****       -14.5000   5.0000  17.0000 Du        
   6658 ****       -14.5000   5.2500  13.5000 Du        
   6659 ****       -14.5000   5.2500  13.7500 Du        
   6660 ****       -14.5000   5.2500  14.0000 Du        
   6661 ****       -14.5000   5.2500  14.2500 Du        
   6662 ****       -14.5000   5.2500  14.5000 Du        
   6663 ****       -14.5000   5.2500  14.7500 Du        
   6664 ****       -14.5000   5.2500  15.0000 Du        
   6665 ****       -14.5000   5.2500  15.2500 Du        
   6666 ****       -14.5000   5.2500  15.5000 Du        
   6667 ****       -14.5000   5.2500  15.7500 Du        
   6668 ****       -14.5000   5.2500  16.0000 Du        
   6669 ****       -14.5000   5.2500  16.2500 Du        
   6670 ****       -14.5000   5.2500  16.5000 Du        
   6671 ****       -14.5000   5.2500  16.7500 Du        
   6672 ****       -14.5000   5.2500  17.0000 Du        
   6673 ****       -14.5000   5.5000  13.5000 Du        
   6674 ****       -14.5000   5.5000  13.7500 Du        
   6675 ****       -14.5000   5.5000  14.0000 Du        
   6676 ****       -14.5000   5.5000  14.2500 Du        
   6677 ****       -14.5000   5.5000  14.5000 Du        
   6678 ****       -14.5000   5.5000  14.7500 Du        
   6679 ****       -14.5000   5.5000  15.0000 Du        
   6680 ****       -14.5000   5.5000  15.2500 Du        
   6681 ****       -14.5000   5.5000  15.5000 Du        
   6682 ****       -14.5000   5.5000  15.7500 Du        
   6683 ****       -14.5000   5.5000  16.0000 Du        
   6684 ****       -14.5000   5.5000  16.2500 Du        
   6685 ****       -14.5000   5.7500  13.5000 Du        
   6686 ****       -14.5000   5.7500  13.7500 Du        
   6687 ****       -14.5000   5.7500  14.0000 Du        
   6688 ****       -14.5000   5.7500  14.2500 Du        
   6689 ****       -14.5000   5.7500  14.5000 Du        
   6690 ****       -14.5000   5.7500  14.7500 Du        
   6691 ****       -14.5000   5.7500  15.0000 Du        
   6692 ****       -14.5000   5.7500  15.2500 Du        
   6693 ****       -14.5000   5.7500  15.5000 Du        
   6694 ****       -14.5000   5.7500  15.7500 Du        
   6695 ****       -14.5000   5.7500  16.0000 Du        
   6696 ****       -14.5000   5.7500  16.2500 Du        
   6697 ****       -14.5000   6.0000  13.7500 Du        
   6698 ****       -14.5000   6.0000  14.0000 Du        
   6699 ****       -14.5000   6.0000  14.2500 Du        
   6700 ****       -14.5000   6.0000  14.5000 Du        
   6701 ****       -14.5000   6.0000  14.7500 Du        
   6702 ****       -14.5000   6.0000  15.0000 Du        
   6703 ****       -14.5000   6.0000  15.2500 Du        
   6704 ****       -14.5000   6.0000  15.5000 Du        
   6705 ****       -14.5000   6.0000  15.7500 Du        
   6706 ****       -14.5000   6.0000  16.0000 Du        
   6707 ****       -14.5000   6.0000  16.2500 Du        
   6708 ****       -14.5000   6.2500  13.7500 Du        
   6709 ****       -14.5000   6.2500  14.0000 Du        
   6710 ****       -14.5000   6.2500  14.2500 Du        
   6711 ****       -14.5000   6.2500  14.5000 Du        
   6712 ****       -14.5000   6.2500  14.7500 Du        
   6713 ****       -14.5000   6.2500  15.0000 Du        
   6714 ****       -14.5000   6.2500  15.2500 Du        
   6715 ****       -14.5000   6.2500  15.5000 Du        
   6716 ****       -14.5000   6.2500  15.7500 Du        
   6717 ****       -14.5000   6.2500  16.0000 Du        
   6718 ****       -14.5000   6.5000  14.0000 Du        
   6719 ****       -14.5000   6.5000  14.2500 Du        
   6720 ****       -14.5000   6.5000  14.5000 Du        
   6721 ****       -14.5000   6.5000  14.7500 Du        
   6722 ****       -14.5000   6.5000  15.0000 Du        
   6723 ****       -14.5000   6.5000  15.2500 Du        
   6724 ****       -14.5000   6.7500  14.2500 Du        
   6725 ****       -14.5000   6.7500  14.5000 Du        
   6726 ****       -14.5000   6.7500  14.7500 Du        
   6727 ****       -14.5000   6.7500  15.0000 Du        
   6728 ****       -14.5000   7.0000  14.2500 Du        
   6729 ****       -14.5000   7.0000  14.5000 Du        
   6730 ****       -14.5000  11.2500  22.2500 Du        
   6731 ****       -14.5000  11.2500  22.5000 Du        
   6732 ****       -14.5000  11.2500  22.7500 Du        
   6733 ****       -14.5000  11.5000  22.0000 Du        
   6734 ****       -14.5000  11.5000  22.2500 Du        
   6735 ****       -14.5000  11.5000  22.5000 Du        
   6736 ****       -14.5000  11.5000  22.7500 Du        
   6737 ****       -14.5000  11.5000  23.0000 Du        
   6738 ****       -14.5000  11.5000  23.2500 Du        
   6739 ****       -14.5000  11.7500  22.0000 Du        
   6740 ****       -14.5000  11.7500  22.2500 Du        
   6741 ****       -14.5000  11.7500  22.5000 Du        
   6742 ****       -14.5000  11.7500  22.7500 Du        
   6743 ****       -14.5000  11.7500  23.0000 Du        
   6744 ****       -14.5000  11.7500  23.2500 Du        
   6745 ****       -14.5000  11.7500  23.5000 Du        
   6746 ****       -14.5000  11.7500  23.7500 Du        
   6747 ****       -14.5000  12.0000  22.0000 Du        
   6748 ****       -14.5000  12.0000  22.2500 Du        
   6749 ****       -14.5000  12.0000  22.5000 Du        
   6750 ****       -14.5000  12.0000  22.7500 Du        
   6751 ****       -14.5000  12.0000  23.0000 Du        
   6752 ****       -14.5000  12.0000  23.2500 Du        
   6753 ****       -14.5000  12.0000  23.5000 Du        
   6754 ****       -14.5000  12.0000  23.7500 Du        
   6755 ****       -14.5000  12.0000  24.0000 Du        
   6756 ****       -14.5000  12.0000  24.2500 Du        
   6757 ****       -14.5000  12.2500  22.5000 Du        
   6758 ****       -14.5000  12.2500  22.7500 Du        
   6759 ****       -14.5000  12.2500  23.0000 Du        
   6760 ****       -14.5000  12.2500  23.2500 Du        
   6761 ****       -14.5000  12.2500  23.5000 Du        
   6762 ****       -14.5000  12.2500  23.7500 Du        
   6763 ****       -14.5000  12.2500  24.0000 Du        
   6764 ****       -14.5000  12.2500  24.2500 Du        
   6765 ****       -14.5000  12.5000  23.0000 Du        
   6766 ****       -14.5000  12.5000  23.2500 Du        
   6767 ****       -14.5000  12.5000  23.5000 Du        
   6768 ****       -14.5000  12.5000  23.7500 Du        
   6769 ****       -14.5000  12.5000  24.0000 Du        
   6770 ****       -14.5000  12.5000  24.2500 Du        
   6771 ****       -14.5000  12.7500  23.5000 Du        
   6772 ****       -14.5000  12.7500  23.7500 Du        
   6773 ****       -14.5000  12.7500  24.0000 Du        
   6774 ****       -14.2500 -20.2500  31.0000 Du        
   6775 ****       -14.2500 -20.2500  31.2500 Du        
   6776 ****       -14.2500 -20.0000  30.7500 Du        
   6777 ****       -14.2500 -20.0000  31.0000 Du        
   6778 ****       -14.2500 -20.0000  31.2500 Du        
   6779 ****       -14.2500 -19.7500  30.7500 Du        
   6780 ****       -14.2500 -19.7500  31.0000 Du        
   6781 ****       -14.2500 -19.7500  31.2500 Du        
   6782 ****       -14.2500 -19.5000  30.7500 Du        
   6783 ****       -14.2500 -19.5000  31.0000 Du        
   6784 ****       -14.2500 -19.5000  31.2500 Du        
   6785 ****       -14.2500 -19.2500  30.7500 Du        
   6786 ****       -14.2500 -19.2500  31.0000 Du        
   6787 ****       -14.2500 -19.2500  31.2500 Du        
   6788 ****       -14.2500 -19.0000  31.0000 Du        
   6789 ****       -14.2500  -8.5000  22.0000 Du        
   6790 ****       -14.2500  -8.5000  22.2500 Du        
   6791 ****       -14.2500  -8.2500  21.7500 Du        
   6792 ****       -14.2500  -8.2500  22.0000 Du        
   6793 ****       -14.2500  -8.2500  22.2500 Du        
   6794 ****       -14.2500  -8.2500  22.5000 Du        
   6795 ****       -14.2500  -8.2500  22.7500 Du        
   6796 ****       -14.2500  -8.0000  21.7500 Du        
   6797 ****       -14.2500  -8.0000  22.0000 Du        
   6798 ****       -14.2500  -8.0000  22.2500 Du        
   6799 ****       -14.2500  -8.0000  22.5000 Du        
   6800 ****       -14.2500  -8.0000  22.7500 Du        
   6801 ****       -14.2500  -8.0000  23.0000 Du        
   6802 ****       -14.2500  -8.0000  23.2500 Du        
   6803 ****       -14.2500  -7.7500  21.7500 Du        
   6804 ****       -14.2500  -7.7500  22.0000 Du        
   6805 ****       -14.2500  -7.7500  22.2500 Du        
   6806 ****       -14.2500  -7.7500  22.5000 Du        
   6807 ****       -14.2500  -7.7500  22.7500 Du        
   6808 ****       -14.2500  -7.7500  23.0000 Du        
   6809 ****       -14.2500  -7.7500  23.2500 Du        
   6810 ****       -14.2500  -7.7500  23.5000 Du        
   6811 ****       -14.2500  -7.5000  21.7500 Du        
   6812 ****       -14.2500  -7.5000  22.0000 Du        
   6813 ****       -14.2500  -7.5000  22.2500 Du        
   6814 ****       -14.2500  -7.5000  22.5000 Du        
   6815 ****       -14.2500  -7.5000  22.7500 Du        
   6816 ****       -14.2500  -7.5000  23.0000 Du        
   6817 ****       -14.2500  -7.5000  23.2500 Du        
   6818 ****       -14.2500  -7.5000  23.5000 Du        
   6819 ****       -14.2500  -7.5000  23.7500 Du        
   6820 ****       -14.2500  -7.2500  21.5000 Du        
   6821 ****       -14.2500  -7.2500  21.7500 Du        
   6822 ****       -14.2500  -7.2500  22.0000 Du        
   6823 ****       -14.2500  -7.2500  22.2500 Du        
   6824 ****       -14.2500  -7.2500  22.5000 Du        
   6825 ****       -14.2500  -7.2500  22.7500 Du        
   6826 ****       -14.2500  -7.2500  23.0000 Du        
   6827 ****       -14.2500  -7.2500  23.2500 Du        
   6828 ****       -14.2500  -7.2500  23.5000 Du        
   6829 ****       -14.2500  -7.2500  23.7500 Du        
   6830 ****       -14.2500  -7.2500  24.0000 Du        
   6831 ****       -14.2500  -7.0000  21.2500 Du        
   6832 ****       -14.2500  -7.0000  21.5000 Du        
   6833 ****       -14.2500  -7.0000  21.7500 Du        
   6834 ****       -14.2500  -7.0000  22.0000 Du        
   6835 ****       -14.2500  -7.0000  22.2500 Du        
   6836 ****       -14.2500  -7.0000  22.5000 Du        
   6837 ****       -14.2500  -7.0000  22.7500 Du        
   6838 ****       -14.2500  -7.0000  23.0000 Du        
   6839 ****       -14.2500  -7.0000  23.2500 Du        
   6840 ****       -14.2500  -7.0000  23.5000 Du        
   6841 ****       -14.2500  -7.0000  23.7500 Du        
   6842 ****       -14.2500  -7.0000  24.0000 Du        
   6843 ****       -14.2500  -6.7500  21.0000 Du        
   6844 ****       -14.2500  -6.7500  21.2500 Du        
   6845 ****       -14.2500  -6.7500  21.5000 Du        
   6846 ****       -14.2500  -6.7500  21.7500 Du        
   6847 ****       -14.2500  -6.7500  22.0000 Du        
   6848 ****       -14.2500  -6.7500  22.2500 Du        
   6849 ****       -14.2500  -6.7500  22.5000 Du        
   6850 ****       -14.2500  -6.7500  22.7500 Du        
   6851 ****       -14.2500  -6.7500  23.0000 Du        
   6852 ****       -14.2500  -6.7500  23.2500 Du        
   6853 ****       -14.2500  -6.7500  23.5000 Du        
   6854 ****       -14.2500  -6.7500  23.7500 Du        
   6855 ****       -14.2500  -6.7500  24.0000 Du        
   6856 ****       -14.2500  -6.5000  20.7500 Du        
   6857 ****       -14.2500  -6.5000  21.0000 Du        
   6858 ****       -14.2500  -6.5000  21.2500 Du        
   6859 ****       -14.2500  -6.5000  21.5000 Du        
   6860 ****       -14.2500  -6.5000  21.7500 Du        
   6861 ****       -14.2500  -6.5000  22.0000 Du        
   6862 ****       -14.2500  -6.5000  22.2500 Du        
   6863 ****       -14.2500  -6.5000  22.5000 Du        
   6864 ****       -14.2500  -6.5000  22.7500 Du        
   6865 ****       -14.2500  -6.5000  23.0000 Du        
   6866 ****       -14.2500  -6.5000  23.2500 Du        
   6867 ****       -14.2500  -6.5000  23.5000 Du        
   6868 ****       -14.2500  -6.5000  29.0000 Du        
   6869 ****       -14.2500  -6.5000  29.2500 Du        
   6870 ****       -14.2500  -6.2500  21.0000 Du        
   6871 ****       -14.2500  -6.2500  21.2500 Du        
   6872 ****       -14.2500  -6.2500  21.5000 Du        
   6873 ****       -14.2500  -6.2500  21.7500 Du        
   6874 ****       -14.2500  -6.2500  22.0000 Du        
   6875 ****       -14.2500  -6.2500  22.2500 Du        
   6876 ****       -14.2500  -6.2500  22.5000 Du        
   6877 ****       -14.2500  -6.2500  22.7500 Du        
   6878 ****       -14.2500  -6.2500  23.0000 Du        
   6879 ****       -14.2500  -6.2500  23.2500 Du        
   6880 ****       -14.2500  -6.2500  23.5000 Du        
   6881 ****       -14.2500  -6.2500  29.0000 Du        
   6882 ****       -14.2500  -6.2500  29.2500 Du        
   6883 ****       -14.2500  -6.0000  21.0000 Du        
   6884 ****       -14.2500  -6.0000  21.2500 Du        
   6885 ****       -14.2500  -6.0000  21.5000 Du        
   6886 ****       -14.2500  -6.0000  21.7500 Du        
   6887 ****       -14.2500  -6.0000  22.0000 Du        
   6888 ****       -14.2500  -6.0000  22.2500 Du        
   6889 ****       -14.2500  -6.0000  22.5000 Du        
   6890 ****       -14.2500  -6.0000  22.7500 Du        
   6891 ****       -14.2500  -6.0000  23.0000 Du        
   6892 ****       -14.2500  -6.0000  23.2500 Du        
   6893 ****       -14.2500  -6.0000  28.7500 Du        
   6894 ****       -14.2500  -6.0000  29.0000 Du        
   6895 ****       -14.2500  -6.0000  29.2500 Du        
   6896 ****       -14.2500  -6.0000  29.5000 Du        
   6897 ****       -14.2500  -5.7500  21.2500 Du        
   6898 ****       -14.2500  -5.7500  21.5000 Du        
   6899 ****       -14.2500  -5.7500  21.7500 Du        
   6900 ****       -14.2500  -5.7500  22.0000 Du        
   6901 ****       -14.2500  -5.7500  22.2500 Du        
   6902 ****       -14.2500  -5.7500  22.5000 Du        
   6903 ****       -14.2500  -5.7500  22.7500 Du        
   6904 ****       -14.2500  -5.7500  23.0000 Du        
   6905 ****       -14.2500  -5.7500  23.2500 Du        
   6906 ****       -14.2500  -5.7500  29.0000 Du        
   6907 ****       -14.2500  -5.7500  29.2500 Du        
   6908 ****       -14.2500  -5.7500  29.5000 Du        
   6909 ****       -14.2500  -5.5000  21.5000 Du        
   6910 ****       -14.2500  -5.5000  21.7500 Du        
   6911 ****       -14.2500  -5.5000  22.0000 Du        
   6912 ****       -14.2500  -5.5000  22.2500 Du        
   6913 ****       -14.2500  -5.5000  22.5000 Du        
   6914 ****       -14.2500  -5.5000  22.7500 Du        
   6915 ****       -14.2500  -5.5000  23.0000 Du        
   6916 ****       -14.2500  -5.5000  23.2500 Du        
   6917 ****       -14.2500  -5.5000  29.2500 Du        
   6918 ****       -14.2500  -5.5000  29.5000 Du        
   6919 ****       -14.2500  -5.5000  29.7500 Du        
   6920 ****       -14.2500  -5.2500  21.7500 Du        
   6921 ****       -14.2500  -5.2500  22.0000 Du        
   6922 ****       -14.2500  -5.2500  22.2500 Du        
   6923 ****       -14.2500  -5.2500  22.5000 Du        
   6924 ****       -14.2500  -5.2500  22.7500 Du        
   6925 ****       -14.2500  -5.2500  23.0000 Du        
   6926 ****       -14.2500  -5.2500  23.2500 Du        
   6927 ****       -14.2500  -5.2500  29.2500 Du        
   6928 ****       -14.2500  -5.2500  29.5000 Du        
   6929 ****       -14.2500  -5.2500  29.7500 Du        
   6930 ****       -14.2500  -5.2500  30.0000 Du        
   6931 ****       -14.2500  -5.0000  22.0000 Du        
   6932 ****       -14.2500  -5.0000  22.2500 Du        
   6933 ****       -14.2500  -5.0000  22.5000 Du        
   6934 ****       -14.2500  -5.0000  22.7500 Du        
   6935 ****       -14.2500  -5.0000  23.0000 Du        
   6936 ****       -14.2500  -5.0000  23.2500 Du        
   6937 ****       -14.2500  -5.0000  29.2500 Du        
   6938 ****       -14.2500  -5.0000  29.5000 Du        
   6939 ****       -14.2500  -5.0000  29.7500 Du        
   6940 ****       -14.2500  -5.0000  30.0000 Du        
   6941 ****       -14.2500  -5.0000  30.2500 Du        
   6942 ****       -14.2500  -5.0000  30.5000 Du        
   6943 ****       -14.2500  -4.7500  22.2500 Du        
   6944 ****       -14.2500  -4.7500  22.5000 Du        
   6945 ****       -14.2500  -4.7500  22.7500 Du        
   6946 ****       -14.2500  -4.7500  23.0000 Du        
   6947 ****       -14.2500  -4.7500  23.2500 Du        
   6948 ****       -14.2500  -4.7500  29.5000 Du        
   6949 ****       -14.2500  -4.7500  29.7500 Du        
   6950 ****       -14.2500  -4.7500  30.0000 Du        
   6951 ****       -14.2500  -4.7500  30.2500 Du        
   6952 ****       -14.2500  -4.7500  30.5000 Du        
   6953 ****       -14.2500  -4.7500  30.7500 Du        
   6954 ****       -14.2500  -4.5000  22.7500 Du        
   6955 ****       -14.2500  -4.5000  23.0000 Du        
   6956 ****       -14.2500  -4.5000  29.5000 Du        
   6957 ****       -14.2500  -4.5000  29.7500 Du        
   6958 ****       -14.2500  -4.5000  30.0000 Du        
   6959 ****       -14.2500  -4.5000  30.2500 Du        
   6960 ****       -14.2500  -4.5000  30.5000 Du        
   6961 ****       -14.2500  -4.5000  30.7500 Du        
   6962 ****       -14.2500  -4.2500  22.7500 Du        
   6963 ****       -14.2500  -4.2500  23.0000 Du        
   6964 ****       -14.2500  -4.2500  29.5000 Du        
   6965 ****       -14.2500  -4.2500  29.7500 Du        
   6966 ****       -14.2500  -4.2500  30.0000 Du        
   6967 ****       -14.2500  -4.2500  30.2500 Du        
   6968 ****       -14.2500  -4.2500  30.5000 Du        
   6969 ****       -14.2500  -4.2500  30.7500 Du        
   6970 ****       -14.2500  -4.0000  23.0000 Du        
   6971 ****       -14.2500  -4.0000  29.5000 Du        
   6972 ****       -14.2500  -4.0000  29.7500 Du        
   6973 ****       -14.2500  -4.0000  30.0000 Du        
   6974 ****       -14.2500  -4.0000  30.2500 Du        
   6975 ****       -14.2500  -4.0000  30.5000 Du        
   6976 ****       -14.2500  -4.0000  30.7500 Du        
   6977 ****       -14.2500  -3.7500  29.5000 Du        
   6978 ****       -14.2500  -3.7500  29.7500 Du        
   6979 ****       -14.2500  -3.7500  30.0000 Du        
   6980 ****       -14.2500  -3.7500  30.2500 Du        
   6981 ****       -14.2500  -3.7500  30.5000 Du        
   6982 ****       -14.2500  -3.7500  30.7500 Du        
   6983 ****       -14.2500  -3.5000  29.5000 Du        
   6984 ****       -14.2500  -3.5000  29.7500 Du        
   6985 ****       -14.2500  -3.5000  30.0000 Du        
   6986 ****       -14.2500  -3.5000  30.2500 Du        
   6987 ****       -14.2500  -3.5000  30.5000 Du        
   6988 ****       -14.2500  -3.2500  29.5000 Du        
   6989 ****       -14.2500  -3.2500  29.7500 Du        
   6990 ****       -14.2500  -3.2500  30.0000 Du        
   6991 ****       -14.2500  -3.2500  30.2500 Du        
   6992 ****       -14.2500  -3.0000  23.2500 Du        
   6993 ****       -14.2500  -3.0000  29.5000 Du        
   6994 ****       -14.2500  -3.0000  30.0000 Du        
   6995 ****       -14.2500  -2.7500  23.2500 Du        
   6996 ****       -14.2500  -2.5000  23.0000 Du        
   6997 ****       -14.2500  -2.5000  23.2500 Du        
   6998 ****       -14.2500  -2.2500  23.0000 Du        
   6999 ****       -14.2500  -2.2500  23.2500 Du        
   7000 ****       -14.2500  -2.0000  22.7500 Du        
   7001 ****       -14.2500  -2.0000  23.0000 Du        
   7002 ****       -14.2500  -2.0000  23.2500 Du        
   7003 ****       -14.2500  -1.7500  22.7500 Du        
   7004 ****       -14.2500  -1.7500  23.0000 Du        
   7005 ****       -14.2500  -1.7500  23.2500 Du        
   7006 ****       -14.2500  -1.5000  22.7500 Du        
   7007 ****       -14.2500  -1.5000  23.0000 Du        
   7008 ****       -14.2500  -1.5000  23.2500 Du        
   7009 ****       -14.2500  -1.2500  22.7500 Du        
   7010 ****       -14.2500  -1.2500  23.0000 Du        
   7011 ****       -14.2500  -1.2500  23.2500 Du        
   7012 ****       -14.2500  -1.0000  22.2500 Du        
   7013 ****       -14.2500  -1.0000  22.5000 Du        
   7014 ****       -14.2500  -1.0000  22.7500 Du        
   7015 ****       -14.2500  -1.0000  23.0000 Du        
   7016 ****       -14.2500  -1.0000  23.2500 Du        
   7017 ****       -14.2500  -0.7500  22.2500 Du        
   7018 ****       -14.2500  -0.7500  22.5000 Du        
   7019 ****       -14.2500  -0.7500  22.7500 Du        
   7020 ****       -14.2500  -0.7500  23.0000 Du        
   7021 ****       -14.2500  -0.7500  23.2500 Du        
   7022 ****       -14.2500  -0.5000  22.0000 Du        
   7023 ****       -14.2500  -0.5000  22.2500 Du        
   7024 ****       -14.2500  -0.5000  22.5000 Du        
   7025 ****       -14.2500  -0.5000  22.7500 Du        
   7026 ****       -14.2500  -0.5000  23.0000 Du        
   7027 ****       -14.2500  -0.5000  23.2500 Du        
   7028 ****       -14.2500  -0.2500  21.7500 Du        
   7029 ****       -14.2500  -0.2500  22.0000 Du        
   7030 ****       -14.2500  -0.2500  22.2500 Du        
   7031 ****       -14.2500  -0.2500  22.5000 Du        
   7032 ****       -14.2500  -0.2500  22.7500 Du        
   7033 ****       -14.2500  -0.2500  23.0000 Du        
   7034 ****       -14.2500  -0.2500  23.2500 Du        
   7035 ****       -14.2500   0.0000  21.2500 Du        
   7036 ****       -14.2500   0.0000  21.5000 Du        
   7037 ****       -14.2500   0.0000  21.7500 Du        
   7038 ****       -14.2500   0.0000  22.0000 Du        
   7039 ****       -14.2500   0.0000  22.2500 Du        
   7040 ****       -14.2500   0.0000  22.5000 Du        
   7041 ****       -14.2500   0.0000  22.7500 Du        
   7042 ****       -14.2500   0.0000  23.0000 Du        
   7043 ****       -14.2500   0.0000  23.2500 Du        
   7044 ****       -14.2500   0.2500  21.0000 Du        
   7045 ****       -14.2500   0.2500  21.2500 Du        
   7046 ****       -14.2500   0.2500  21.5000 Du        
   7047 ****       -14.2500   0.2500  21.7500 Du        
   7048 ****       -14.2500   0.2500  22.0000 Du        
   7049 ****       -14.2500   0.2500  22.2500 Du        
   7050 ****       -14.2500   0.2500  22.5000 Du        
   7051 ****       -14.2500   0.2500  22.7500 Du        
   7052 ****       -14.2500   0.2500  23.0000 Du        
   7053 ****       -14.2500   0.5000  21.0000 Du        
   7054 ****       -14.2500   0.5000  21.2500 Du        
   7055 ****       -14.2500   0.5000  21.5000 Du        
   7056 ****       -14.2500   0.5000  21.7500 Du        
   7057 ****       -14.2500   0.5000  22.0000 Du        
   7058 ****       -14.2500   0.5000  22.2500 Du        
   7059 ****       -14.2500   0.5000  22.5000 Du        
   7060 ****       -14.2500   0.5000  22.7500 Du        
   7061 ****       -14.2500   0.7500  21.0000 Du        
   7062 ****       -14.2500   0.7500  21.2500 Du        
   7063 ****       -14.2500   0.7500  21.5000 Du        
   7064 ****       -14.2500   0.7500  21.7500 Du        
   7065 ****       -14.2500   0.7500  22.0000 Du        
   7066 ****       -14.2500   0.7500  22.2500 Du        
   7067 ****       -14.2500   0.7500  22.5000 Du        
   7068 ****       -14.2500   0.7500  22.7500 Du        
   7069 ****       -14.2500   1.0000  21.0000 Du        
   7070 ****       -14.2500   1.0000  21.2500 Du        
   7071 ****       -14.2500   1.0000  21.5000 Du        
   7072 ****       -14.2500   1.0000  21.7500 Du        
   7073 ****       -14.2500   1.0000  22.0000 Du        
   7074 ****       -14.2500   1.0000  22.2500 Du        
   7075 ****       -14.2500   1.0000  22.5000 Du        
   7076 ****       -14.2500   1.2500  21.0000 Du        
   7077 ****       -14.2500   1.2500  21.2500 Du        
   7078 ****       -14.2500   1.2500  21.5000 Du        
   7079 ****       -14.2500   1.2500  21.7500 Du        
   7080 ****       -14.2500   1.2500  22.0000 Du        
   7081 ****       -14.2500   1.2500  22.2500 Du        
   7082 ****       -14.2500   1.5000  21.2500 Du        
   7083 ****       -14.2500   1.5000  21.5000 Du        
   7084 ****       -14.2500   1.5000  21.7500 Du        
   7085 ****       -14.2500   1.5000  22.0000 Du        
   7086 ****       -14.2500   1.5000  22.2500 Du        
   7087 ****       -14.2500   1.7500  21.5000 Du        
   7088 ****       -14.2500   1.7500  21.7500 Du        
   7089 ****       -14.2500   1.7500  22.0000 Du        
   7090 ****       -14.2500   2.0000  21.5000 Du        
   7091 ****       -14.2500   2.0000  21.7500 Du        
   7092 ****       -14.2500   4.2500  15.7500 Du        
   7093 ****       -14.2500   4.2500  16.0000 Du        
   7094 ****       -14.2500   4.2500  16.2500 Du        
   7095 ****       -14.2500   4.5000  14.5000 Du        
   7096 ****       -14.2500   4.5000  14.7500 Du        
   7097 ****       -14.2500   4.5000  15.0000 Du        
   7098 ****       -14.2500   4.5000  15.2500 Du        
   7099 ****       -14.2500   4.5000  15.5000 Du        
   7100 ****       -14.2500   4.5000  15.7500 Du        
   7101 ****       -14.2500   4.5000  16.0000 Du        
   7102 ****       -14.2500   4.5000  16.2500 Du        
   7103 ****       -14.2500   4.5000  16.5000 Du        
   7104 ****       -14.2500   4.7500  13.7500 Du        
   7105 ****       -14.2500   4.7500  14.0000 Du        
   7106 ****       -14.2500   4.7500  14.2500 Du        
   7107 ****       -14.2500   4.7500  14.5000 Du        
   7108 ****       -14.2500   4.7500  14.7500 Du        
   7109 ****       -14.2500   4.7500  15.0000 Du        
   7110 ****       -14.2500   4.7500  15.2500 Du        
   7111 ****       -14.2500   4.7500  15.5000 Du        
   7112 ****       -14.2500   4.7500  15.7500 Du        
   7113 ****       -14.2500   4.7500  16.0000 Du        
   7114 ****       -14.2500   4.7500  16.2500 Du        
   7115 ****       -14.2500   4.7500  16.5000 Du        
   7116 ****       -14.2500   4.7500  16.7500 Du        
   7117 ****       -14.2500   4.7500  17.0000 Du        
   7118 ****       -14.2500   4.7500  17.2500 Du        
   7119 ****       -14.2500   4.7500  17.5000 Du        
   7120 ****       -14.2500   4.7500  17.7500 Du        
   7121 ****       -14.2500   5.0000  13.5000 Du        
   7122 ****       -14.2500   5.0000  13.7500 Du        
   7123 ****       -14.2500   5.0000  14.0000 Du        
   7124 ****       -14.2500   5.0000  14.2500 Du        
   7125 ****       -14.2500   5.0000  14.5000 Du        
   7126 ****       -14.2500   5.0000  14.7500 Du        
   7127 ****       -14.2500   5.0000  15.0000 Du        
   7128 ****       -14.2500   5.0000  15.2500 Du        
   7129 ****       -14.2500   5.0000  15.5000 Du        
   7130 ****       -14.2500   5.0000  15.7500 Du        
   7131 ****       -14.2500   5.0000  16.0000 Du        
   7132 ****       -14.2500   5.0000  16.2500 Du        
   7133 ****       -14.2500   5.0000  16.5000 Du        
   7134 ****       -14.2500   5.0000  16.7500 Du        
   7135 ****       -14.2500   5.0000  17.0000 Du        
   7136 ****       -14.2500   5.0000  17.2500 Du        
   7137 ****       -14.2500   5.0000  17.5000 Du        
   7138 ****       -14.2500   5.0000  17.7500 Du        
   7139 ****       -14.2500   5.2500  13.2500 Du        
   7140 ****       -14.2500   5.2500  13.5000 Du        
   7141 ****       -14.2500   5.2500  13.7500 Du        
   7142 ****       -14.2500   5.2500  14.0000 Du        
   7143 ****       -14.2500   5.2500  14.2500 Du        
   7144 ****       -14.2500   5.2500  14.5000 Du        
   7145 ****       -14.2500   5.2500  14.7500 Du        
   7146 ****       -14.2500   5.2500  15.0000 Du        
   7147 ****       -14.2500   5.2500  15.2500 Du        
   7148 ****       -14.2500   5.2500  15.5000 Du        
   7149 ****       -14.2500   5.2500  15.7500 Du        
   7150 ****       -14.2500   5.2500  16.0000 Du        
   7151 ****       -14.2500   5.2500  16.2500 Du        
   7152 ****       -14.2500   5.2500  16.5000 Du        
   7153 ****       -14.2500   5.2500  16.7500 Du        
   7154 ****       -14.2500   5.2500  17.0000 Du        
   7155 ****       -14.2500   5.2500  17.2500 Du        
   7156 ****       -14.2500   5.2500  17.5000 Du        
   7157 ****       -14.2500   5.5000  13.2500 Du        
   7158 ****       -14.2500   5.5000  13.5000 Du        
   7159 ****       -14.2500   5.5000  13.7500 Du        
   7160 ****       -14.2500   5.5000  14.0000 Du        
   7161 ****       -14.2500   5.5000  14.2500 Du        
   7162 ****       -14.2500   5.5000  14.5000 Du        
   7163 ****       -14.2500   5.5000  14.7500 Du        
   7164 ****       -14.2500   5.5000  15.0000 Du        
   7165 ****       -14.2500   5.5000  15.2500 Du        
   7166 ****       -14.2500   5.5000  15.5000 Du        
   7167 ****       -14.2500   5.5000  15.7500 Du        
   7168 ****       -14.2500   5.5000  16.0000 Du        
   7169 ****       -14.2500   5.5000  16.2500 Du        
   7170 ****       -14.2500   5.5000  16.5000 Du        
   7171 ****       -14.2500   5.5000  16.7500 Du        
   7172 ****       -14.2500   5.7500  13.2500 Du        
   7173 ****       -14.2500   5.7500  13.5000 Du        
   7174 ****       -14.2500   5.7500  13.7500 Du        
   7175 ****       -14.2500   5.7500  14.0000 Du        
   7176 ****       -14.2500   5.7500  14.2500 Du        
   7177 ****       -14.2500   5.7500  14.5000 Du        
   7178 ****       -14.2500   5.7500  14.7500 Du        
   7179 ****       -14.2500   5.7500  15.0000 Du        
   7180 ****       -14.2500   5.7500  15.2500 Du        
   7181 ****       -14.2500   5.7500  15.5000 Du        
   7182 ****       -14.2500   5.7500  15.7500 Du        
   7183 ****       -14.2500   5.7500  16.0000 Du        
   7184 ****       -14.2500   5.7500  16.2500 Du        
   7185 ****       -14.2500   5.7500  16.5000 Du        
   7186 ****       -14.2500   5.7500  16.7500 Du        
   7187 ****       -14.2500   5.7500  17.0000 Du        
   7188 ****       -14.2500   6.0000  13.2500 Du        
   7189 ****       -14.2500   6.0000  13.5000 Du        
   7190 ****       -14.2500   6.0000  13.7500 Du        
   7191 ****       -14.2500   6.0000  14.0000 Du        
   7192 ****       -14.2500   6.0000  14.2500 Du        
   7193 ****       -14.2500   6.0000  14.5000 Du        
   7194 ****       -14.2500   6.0000  14.7500 Du        
   7195 ****       -14.2500   6.0000  15.0000 Du        
   7196 ****       -14.2500   6.0000  15.2500 Du        
   7197 ****       -14.2500   6.0000  15.5000 Du        
   7198 ****       -14.2500   6.0000  15.7500 Du        
   7199 ****       -14.2500   6.0000  16.0000 Du        
   7200 ****       -14.2500   6.0000  16.2500 Du        
   7201 ****       -14.2500   6.0000  16.5000 Du        
   7202 ****       -14.2500   6.2500  13.5000 Du        
   7203 ****       -14.2500   6.2500  13.7500 Du        
   7204 ****       -14.2500   6.2500  14.0000 Du        
   7205 ****       -14.2500   6.2500  14.2500 Du        
   7206 ****       -14.2500   6.2500  14.5000 Du        
   7207 ****       -14.2500   6.2500  14.7500 Du        
   7208 ****       -14.2500   6.2500  15.0000 Du        
   7209 ****       -14.2500   6.2500  15.2500 Du        
   7210 ****       -14.2500   6.2500  15.5000 Du        
   7211 ****       -14.2500   6.2500  15.7500 Du        
   7212 ****       -14.2500   6.2500  16.0000 Du        
   7213 ****       -14.2500   6.2500  16.2500 Du        
   7214 ****       -14.2500   6.5000  13.7500 Du        
   7215 ****       -14.2500   6.5000  14.0000 Du        
   7216 ****       -14.2500   6.5000  14.2500 Du        
   7217 ****       -14.2500   6.5000  14.5000 Du        
   7218 ****       -14.2500   6.5000  14.7500 Du        
   7219 ****       -14.2500   6.5000  15.0000 Du        
   7220 ****       -14.2500   6.5000  15.2500 Du        
   7221 ****       -14.2500   6.7500  13.7500 Du        
   7222 ****       -14.2500   6.7500  14.0000 Du        
   7223 ****       -14.2500   6.7500  14.2500 Du        
   7224 ****       -14.2500   6.7500  14.5000 Du        
   7225 ****       -14.2500   6.7500  14.7500 Du        
   7226 ****       -14.2500   6.7500  15.0000 Du        
   7227 ****       -14.2500   6.7500  15.2500 Du        
   7228 ****       -14.2500   7.0000  13.7500 Du        
   7229 ****       -14.2500   7.0000  14.0000 Du        
   7230 ****       -14.2500   7.0000  14.2500 Du        
   7231 ****       -14.2500   7.0000  14.5000 Du        
   7232 ****       -14.2500   7.0000  14.7500 Du        
   7233 ****       -14.2500   7.2500  14.0000 Du        
   7234 ****       -14.2500   7.2500  14.2500 Du        
   7235 ****       -14.2500   7.2500  14.5000 Du        
   7236 ****       -14.2500  11.0000  22.7500 Du        
   7237 ****       -14.2500  11.0000  23.0000 Du        
   7238 ****       -14.2500  11.2500  22.0000 Du        
   7239 ****       -14.2500  11.2500  22.2500 Du        
   7240 ****       -14.2500  11.2500  22.5000 Du        
   7241 ****       -14.2500  11.2500  22.7500 Du        
   7242 ****       -14.2500  11.2500  23.0000 Du        
   7243 ****       -14.2500  11.5000  22.0000 Du        
   7244 ****       -14.2500  11.5000  22.2500 Du        
   7245 ****       -14.2500  11.5000  22.5000 Du        
   7246 ****       -14.2500  11.5000  22.7500 Du        
   7247 ****       -14.2500  11.5000  23.0000 Du        
   7248 ****       -14.2500  11.5000  23.2500 Du        
   7249 ****       -14.2500  11.5000  23.5000 Du        
   7250 ****       -14.2500  11.5000  23.7500 Du        
   7251 ****       -14.2500  11.7500  22.0000 Du        
   7252 ****       -14.2500  11.7500  22.2500 Du        
   7253 ****       -14.2500  11.7500  22.5000 Du        
   7254 ****       -14.2500  11.7500  22.7500 Du        
   7255 ****       -14.2500  11.7500  23.0000 Du        
   7256 ****       -14.2500  11.7500  23.2500 Du        
   7257 ****       -14.2500  11.7500  23.5000 Du        
   7258 ****       -14.2500  11.7500  23.7500 Du        
   7259 ****       -14.2500  11.7500  24.0000 Du        
   7260 ****       -14.2500  12.0000  22.0000 Du        
   7261 ****       -14.2500  12.0000  22.2500 Du        
   7262 ****       -14.2500  12.0000  22.5000 Du        
   7263 ****       -14.2500  12.0000  22.7500 Du        
   7264 ****       -14.2500  12.0000  23.0000 Du        
   7265 ****       -14.2500  12.0000  23.2500 Du        
   7266 ****       -14.2500  12.0000  23.5000 Du        
   7267 ****       -14.2500  12.0000  23.7500 Du        
   7268 ****       -14.2500  12.0000  24.0000 Du        
   7269 ****       -14.2500  12.0000  24.2500 Du        
   7270 ****       -14.2500  12.2500  22.5000 Du        
   7271 ****       -14.2500  12.2500  22.7500 Du        
   7272 ****       -14.2500  12.2500  23.0000 Du        
   7273 ****       -14.2500  12.2500  23.2500 Du        
   7274 ****       -14.2500  12.2500  23.5000 Du        
   7275 ****       -14.2500  12.2500  23.7500 Du        
   7276 ****       -14.2500  12.2500  24.0000 Du        
   7277 ****       -14.2500  12.2500  24.2500 Du        
   7278 ****       -14.2500  12.5000  23.0000 Du        
   7279 ****       -14.2500  12.5000  23.2500 Du        
   7280 ****       -14.2500  12.5000  23.5000 Du        
   7281 ****       -14.2500  12.5000  23.7500 Du        
   7282 ****       -14.2500  12.5000  24.0000 Du        
   7283 ****       -14.2500  12.5000  24.2500 Du        
   7284 ****       -14.2500  12.5000  24.5000 Du        
   7285 ****       -14.2500  12.7500  23.5000 Du        
   7286 ****       -14.2500  12.7500  23.7500 Du        
   7287 ****       -14.2500  12.7500  24.0000 Du        
   7288 ****       -14.2500  12.7500  24.2500 Du        
   7289 ****       -14.2500  13.0000  23.7500 Du        
   7290 ****       -14.2500  13.0000  24.0000 Du        
   7291 ****       -14.0000 -20.0000  31.0000 Du        
   7292 ****       -14.0000 -20.0000  31.2500 Du        
   7293 ****       -14.0000 -19.7500  31.0000 Du        
   7294 ****       -14.0000 -19.5000  31.0000 Du        
   7295 ****       -14.0000 -19.2500  31.0000 Du        
   7296 ****       -14.0000  -8.5000  22.2500 Du        
   7297 ****       -14.0000  -8.2500  21.7500 Du        
   7298 ****       -14.0000  -8.2500  22.0000 Du        
   7299 ****       -14.0000  -8.2500  22.2500 Du        
   7300 ****       -14.0000  -8.2500  22.5000 Du        
   7301 ****       -14.0000  -8.2500  22.7500 Du        
   7302 ****       -14.0000  -8.0000  21.5000 Du        
   7303 ****       -14.0000  -8.0000  21.7500 Du        
   7304 ****       -14.0000  -8.0000  22.0000 Du        
   7305 ****       -14.0000  -8.0000  22.2500 Du        
   7306 ****       -14.0000  -8.0000  22.5000 Du        
   7307 ****       -14.0000  -8.0000  22.7500 Du        
   7308 ****       -14.0000  -8.0000  23.0000 Du        
   7309 ****       -14.0000  -8.0000  23.2500 Du        
   7310 ****       -14.0000  -7.7500  21.5000 Du        
   7311 ****       -14.0000  -7.7500  21.7500 Du        
   7312 ****       -14.0000  -7.7500  22.0000 Du        
   7313 ****       -14.0000  -7.7500  22.2500 Du        
   7314 ****       -14.0000  -7.7500  22.5000 Du        
   7315 ****       -14.0000  -7.7500  22.7500 Du        
   7316 ****       -14.0000  -7.7500  23.0000 Du        
   7317 ****       -14.0000  -7.7500  23.2500 Du        
   7318 ****       -14.0000  -7.7500  23.5000 Du        
   7319 ****       -14.0000  -7.7500  23.7500 Du        
   7320 ****       -14.0000  -7.5000  21.2500 Du        
   7321 ****       -14.0000  -7.5000  21.5000 Du        
   7322 ****       -14.0000  -7.5000  21.7500 Du        
   7323 ****       -14.0000  -7.5000  22.0000 Du        
   7324 ****       -14.0000  -7.5000  22.2500 Du        
   7325 ****       -14.0000  -7.5000  22.5000 Du        
   7326 ****       -14.0000  -7.5000  22.7500 Du        
   7327 ****       -14.0000  -7.5000  23.0000 Du        
   7328 ****       -14.0000  -7.5000  23.2500 Du        
   7329 ****       -14.0000  -7.5000  23.5000 Du        
   7330 ****       -14.0000  -7.5000  23.7500 Du        
   7331 ****       -14.0000  -7.5000  24.0000 Du        
   7332 ****       -14.0000  -7.2500  21.0000 Du        
   7333 ****       -14.0000  -7.2500  21.2500 Du        
   7334 ****       -14.0000  -7.2500  21.5000 Du        
   7335 ****       -14.0000  -7.2500  21.7500 Du        
   7336 ****       -14.0000  -7.2500  22.0000 Du        
   7337 ****       -14.0000  -7.2500  22.2500 Du        
   7338 ****       -14.0000  -7.2500  22.5000 Du        
   7339 ****       -14.0000  -7.2500  22.7500 Du        
   7340 ****       -14.0000  -7.2500  23.0000 Du        
   7341 ****       -14.0000  -7.2500  23.2500 Du        
   7342 ****       -14.0000  -7.2500  23.5000 Du        
   7343 ****       -14.0000  -7.2500  23.7500 Du        
   7344 ****       -14.0000  -7.2500  24.0000 Du        
   7345 ****       -14.0000  -7.2500  24.2500 Du        
   7346 ****       -14.0000  -7.0000  20.7500 Du        
   7347 ****       -14.0000  -7.0000  21.0000 Du        
   7348 ****       -14.0000  -7.0000  21.2500 Du        
   7349 ****       -14.0000  -7.0000  21.5000 Du        
   7350 ****       -14.0000  -7.0000  21.7500 Du        
   7351 ****       -14.0000  -7.0000  22.0000 Du        
   7352 ****       -14.0000  -7.0000  22.2500 Du        
   7353 ****       -14.0000  -7.0000  22.5000 Du        
   7354 ****       -14.0000  -7.0000  22.7500 Du        
   7355 ****       -14.0000  -7.0000  23.0000 Du        
   7356 ****       -14.0000  -7.0000  23.2500 Du        
   7357 ****       -14.0000  -7.0000  23.5000 Du        
   7358 ****       -14.0000  -7.0000  23.7500 Du        
   7359 ****       -14.0000  -7.0000  24.0000 Du        
   7360 ****       -14.0000  -7.0000  24.2500 Du        
   7361 ****       -14.0000  -6.7500  20.5000 Du        
   7362 ****       -14.0000  -6.7500  20.7500 Du        
   7363 ****       -14.0000  -6.7500  21.0000 Du        
   7364 ****       -14.0000  -6.7500  21.2500 Du        
   7365 ****       -14.0000  -6.7500  21.5000 Du        
   7366 ****       -14.0000  -6.7500  21.7500 Du        
   7367 ****       -14.0000  -6.7500  22.0000 Du        
   7368 ****       -14.0000  -6.7500  22.2500 Du        
   7369 ****       -14.0000  -6.7500  22.5000 Du        
   7370 ****       -14.0000  -6.7500  22.7500 Du        
   7371 ****       -14.0000  -6.7500  23.0000 Du        
   7372 ****       -14.0000  -6.7500  23.2500 Du        
   7373 ****       -14.0000  -6.7500  23.5000 Du        
   7374 ****       -14.0000  -6.7500  23.7500 Du        
   7375 ****       -14.0000  -6.7500  24.0000 Du        
   7376 ****       -14.0000  -6.5000  20.5000 Du        
   7377 ****       -14.0000  -6.5000  20.7500 Du        
   7378 ****       -14.0000  -6.5000  21.0000 Du        
   7379 ****       -14.0000  -6.5000  21.2500 Du        
   7380 ****       -14.0000  -6.5000  21.5000 Du        
   7381 ****       -14.0000  -6.5000  21.7500 Du        
   7382 ****       -14.0000  -6.5000  22.0000 Du        
   7383 ****       -14.0000  -6.5000  22.2500 Du        
   7384 ****       -14.0000  -6.5000  22.5000 Du        
   7385 ****       -14.0000  -6.5000  22.7500 Du        
   7386 ****       -14.0000  -6.5000  23.0000 Du        
   7387 ****       -14.0000  -6.5000  23.2500 Du        
   7388 ****       -14.0000  -6.5000  23.5000 Du        
   7389 ****       -14.0000  -6.5000  23.7500 Du        
   7390 ****       -14.0000  -6.2500  20.7500 Du        
   7391 ****       -14.0000  -6.2500  21.0000 Du        
   7392 ****       -14.0000  -6.2500  21.2500 Du        
   7393 ****       -14.0000  -6.2500  21.5000 Du        
   7394 ****       -14.0000  -6.2500  21.7500 Du        
   7395 ****       -14.0000  -6.2500  22.0000 Du        
   7396 ****       -14.0000  -6.2500  22.2500 Du        
   7397 ****       -14.0000  -6.2500  22.5000 Du        
   7398 ****       -14.0000  -6.2500  22.7500 Du        
   7399 ****       -14.0000  -6.2500  23.0000 Du        
   7400 ****       -14.0000  -6.2500  23.2500 Du        
   7401 ****       -14.0000  -6.2500  23.5000 Du        
   7402 ****       -14.0000  -6.2500  23.7500 Du        
   7403 ****       -14.0000  -6.2500  29.2500 Du        
   7404 ****       -14.0000  -6.0000  21.0000 Du        
   7405 ****       -14.0000  -6.0000  21.2500 Du        
   7406 ****       -14.0000  -6.0000  21.5000 Du        
   7407 ****       -14.0000  -6.0000  21.7500 Du        
   7408 ****       -14.0000  -6.0000  22.0000 Du        
   7409 ****       -14.0000  -6.0000  22.2500 Du        
   7410 ****       -14.0000  -6.0000  22.5000 Du        
   7411 ****       -14.0000  -6.0000  22.7500 Du        
   7412 ****       -14.0000  -6.0000  23.0000 Du        
   7413 ****       -14.0000  -6.0000  23.2500 Du        
   7414 ****       -14.0000  -6.0000  23.5000 Du        
   7415 ****       -14.0000  -6.0000  23.7500 Du        
   7416 ****       -14.0000  -6.0000  29.0000 Du        
   7417 ****       -14.0000  -5.7500  21.2500 Du        
   7418 ****       -14.0000  -5.7500  21.5000 Du        
   7419 ****       -14.0000  -5.7500  21.7500 Du        
   7420 ****       -14.0000  -5.7500  22.0000 Du        
   7421 ****       -14.0000  -5.7500  22.2500 Du        
   7422 ****       -14.0000  -5.7500  22.5000 Du        
   7423 ****       -14.0000  -5.7500  22.7500 Du        
   7424 ****       -14.0000  -5.7500  23.0000 Du        
   7425 ****       -14.0000  -5.7500  23.2500 Du        
   7426 ****       -14.0000  -5.7500  23.5000 Du        
   7427 ****       -14.0000  -5.5000  21.7500 Du        
   7428 ****       -14.0000  -5.5000  22.0000 Du        
   7429 ****       -14.0000  -5.5000  22.2500 Du        
   7430 ****       -14.0000  -5.5000  22.5000 Du        
   7431 ****       -14.0000  -5.5000  22.7500 Du        
   7432 ****       -14.0000  -5.5000  23.0000 Du        
   7433 ****       -14.0000  -5.5000  23.2500 Du        
   7434 ****       -14.0000  -5.5000  23.5000 Du        
   7435 ****       -14.0000  -5.2500  22.0000 Du        
   7436 ****       -14.0000  -5.2500  22.2500 Du        
   7437 ****       -14.0000  -5.2500  22.5000 Du        
   7438 ****       -14.0000  -5.2500  22.7500 Du        
   7439 ****       -14.0000  -5.2500  23.0000 Du        
   7440 ****       -14.0000  -5.2500  23.2500 Du        
   7441 ****       -14.0000  -5.0000  22.2500 Du        
   7442 ****       -14.0000  -5.0000  22.5000 Du        
   7443 ****       -14.0000  -5.0000  22.7500 Du        
   7444 ****       -14.0000  -5.0000  23.0000 Du        
   7445 ****       -14.0000  -5.0000  23.2500 Du        
   7446 ****       -14.0000  -5.0000  29.7500 Du        
   7447 ****       -14.0000  -5.0000  30.0000 Du        
   7448 ****       -14.0000  -5.0000  30.2500 Du        
   7449 ****       -14.0000  -4.7500  22.5000 Du        
   7450 ****       -14.0000  -4.7500  22.7500 Du        
   7451 ****       -14.0000  -4.7500  23.0000 Du        
   7452 ****       -14.0000  -4.7500  23.2500 Du        
   7453 ****       -14.0000  -4.7500  29.7500 Du        
   7454 ****       -14.0000  -4.7500  30.0000 Du        
   7455 ****       -14.0000  -4.7500  30.2500 Du        
   7456 ****       -14.0000  -4.7500  30.5000 Du        
   7457 ****       -14.0000  -4.7500  30.7500 Du        
   7458 ****       -14.0000  -4.5000  22.7500 Du        
   7459 ****       -14.0000  -4.5000  23.0000 Du        
   7460 ****       -14.0000  -4.5000  23.2500 Du        
   7461 ****       -14.0000  -4.5000  30.0000 Du        
   7462 ****       -14.0000  -4.5000  30.2500 Du        
   7463 ****       -14.0000  -4.5000  30.5000 Du        
   7464 ****       -14.0000  -4.5000  30.7500 Du        
   7465 ****       -14.0000  -4.2500  22.7500 Du        
   7466 ****       -14.0000  -4.2500  23.0000 Du        
   7467 ****       -14.0000  -4.2500  23.2500 Du        
   7468 ****       -14.0000  -4.2500  30.0000 Du        
   7469 ****       -14.0000  -4.2500  30.2500 Du        
   7470 ****       -14.0000  -4.2500  30.5000 Du        
   7471 ****       -14.0000  -4.2500  30.7500 Du        
   7472 ****       -14.0000  -4.2500  31.0000 Du        
   7473 ****       -14.0000  -4.0000  23.0000 Du        
   7474 ****       -14.0000  -4.0000  23.2500 Du        
   7475 ****       -14.0000  -4.0000  30.0000 Du        
   7476 ****       -14.0000  -4.0000  30.2500 Du        
   7477 ****       -14.0000  -4.0000  30.5000 Du        
   7478 ****       -14.0000  -4.0000  30.7500 Du        
   7479 ****       -14.0000  -4.0000  31.0000 Du        
   7480 ****       -14.0000  -3.7500  23.0000 Du        
   7481 ****       -14.0000  -3.7500  23.2500 Du        
   7482 ****       -14.0000  -3.7500  29.7500 Du        
   7483 ****       -14.0000  -3.7500  30.0000 Du        
   7484 ****       -14.0000  -3.7500  30.2500 Du        
   7485 ****       -14.0000  -3.7500  30.5000 Du        
   7486 ****       -14.0000  -3.7500  30.7500 Du        
   7487 ****       -14.0000  -3.5000  23.2500 Du        
   7488 ****       -14.0000  -3.5000  30.0000 Du        
   7489 ****       -14.0000  -3.5000  30.2500 Du        
   7490 ****       -14.0000  -3.2500  23.2500 Du        
   7491 ****       -14.0000  -3.2500  30.0000 Du        
   7492 ****       -14.0000  -3.0000  23.2500 Du        
   7493 ****       -14.0000  -2.7500  23.2500 Du        
   7494 ****       -14.0000  -2.2500  23.0000 Du        
   7495 ****       -14.0000  -2.2500  23.2500 Du        
   7496 ****       -14.0000  -2.0000  22.7500 Du        
   7497 ****       -14.0000  -2.0000  23.0000 Du        
   7498 ****       -14.0000  -2.0000  23.2500 Du        
   7499 ****       -14.0000  -1.7500  22.7500 Du        
   7500 ****       -14.0000  -1.7500  23.0000 Du        
   7501 ****       -14.0000  -1.7500  23.2500 Du        
   7502 ****       -14.0000  -1.5000  22.7500 Du        
   7503 ****       -14.0000  -1.5000  23.0000 Du        
   7504 ****       -14.0000  -1.5000  23.2500 Du        
   7505 ****       -14.0000  -1.2500  22.5000 Du        
   7506 ****       -14.0000  -1.2500  22.7500 Du        
   7507 ****       -14.0000  -1.2500  23.0000 Du        
   7508 ****       -14.0000  -1.2500  23.2500 Du        
   7509 ****       -14.0000  -1.0000  22.2500 Du        
   7510 ****       -14.0000  -1.0000  22.5000 Du        
   7511 ****       -14.0000  -1.0000  22.7500 Du        
   7512 ****       -14.0000  -1.0000  23.0000 Du        
   7513 ****       -14.0000  -1.0000  23.2500 Du        
   7514 ****       -14.0000  -0.7500  22.0000 Du        
   7515 ****       -14.0000  -0.7500  22.2500 Du        
   7516 ****       -14.0000  -0.7500  22.5000 Du        
   7517 ****       -14.0000  -0.7500  22.7500 Du        
   7518 ****       -14.0000  -0.7500  23.0000 Du        
   7519 ****       -14.0000  -0.5000  21.7500 Du        
   7520 ****       -14.0000  -0.5000  22.0000 Du        
   7521 ****       -14.0000  -0.5000  22.2500 Du        
   7522 ****       -14.0000  -0.5000  22.5000 Du        
   7523 ****       -14.0000  -0.5000  22.7500 Du        
   7524 ****       -14.0000  -0.5000  23.0000 Du        
   7525 ****       -14.0000  -0.2500  21.2500 Du        
   7526 ****       -14.0000  -0.2500  21.5000 Du        
   7527 ****       -14.0000  -0.2500  21.7500 Du        
   7528 ****       -14.0000  -0.2500  22.0000 Du        
   7529 ****       -14.0000  -0.2500  22.2500 Du        
   7530 ****       -14.0000  -0.2500  22.5000 Du        
   7531 ****       -14.0000  -0.2500  22.7500 Du        
   7532 ****       -14.0000  -0.2500  23.0000 Du        
   7533 ****       -14.0000   0.0000  21.0000 Du        
   7534 ****       -14.0000   0.0000  21.2500 Du        
   7535 ****       -14.0000   0.0000  21.5000 Du        
   7536 ****       -14.0000   0.0000  21.7500 Du        
   7537 ****       -14.0000   0.0000  22.0000 Du        
   7538 ****       -14.0000   0.0000  22.2500 Du        
   7539 ****       -14.0000   0.0000  22.5000 Du        
   7540 ****       -14.0000   0.0000  22.7500 Du        
   7541 ****       -14.0000   0.2500  20.7500 Du        
   7542 ****       -14.0000   0.2500  21.0000 Du        
   7543 ****       -14.0000   0.2500  21.2500 Du        
   7544 ****       -14.0000   0.2500  21.5000 Du        
   7545 ****       -14.0000   0.2500  21.7500 Du        
   7546 ****       -14.0000   0.2500  22.0000 Du        
   7547 ****       -14.0000   0.2500  22.2500 Du        
   7548 ****       -14.0000   0.2500  22.5000 Du        
   7549 ****       -14.0000   0.2500  22.7500 Du        
   7550 ****       -14.0000   0.5000  20.7500 Du        
   7551 ****       -14.0000   0.5000  21.0000 Du        
   7552 ****       -14.0000   0.5000  21.2500 Du        
   7553 ****       -14.0000   0.5000  21.5000 Du        
   7554 ****       -14.0000   0.5000  21.7500 Du        
   7555 ****       -14.0000   0.5000  22.0000 Du        
   7556 ****       -14.0000   0.5000  22.2500 Du        
   7557 ****       -14.0000   0.5000  22.5000 Du        
   7558 ****       -14.0000   0.7500  20.7500 Du        
   7559 ****       -14.0000   0.7500  21.0000 Du        
   7560 ****       -14.0000   0.7500  21.2500 Du        
   7561 ****       -14.0000   0.7500  21.5000 Du        
   7562 ****       -14.0000   0.7500  21.7500 Du        
   7563 ****       -14.0000   0.7500  22.0000 Du        
   7564 ****       -14.0000   0.7500  22.2500 Du        
   7565 ****       -14.0000   0.7500  22.5000 Du        
   7566 ****       -14.0000   1.0000  20.5000 Du        
   7567 ****       -14.0000   1.0000  20.7500 Du        
   7568 ****       -14.0000   1.0000  21.0000 Du        
   7569 ****       -14.0000   1.0000  21.2500 Du        
   7570 ****       -14.0000   1.0000  21.5000 Du        
   7571 ****       -14.0000   1.0000  21.7500 Du        
   7572 ****       -14.0000   1.0000  22.0000 Du        
   7573 ****       -14.0000   1.0000  22.2500 Du        
   7574 ****       -14.0000   1.2500  20.7500 Du        
   7575 ****       -14.0000   1.2500  21.0000 Du        
   7576 ****       -14.0000   1.2500  21.2500 Du        
   7577 ****       -14.0000   1.2500  21.5000 Du        
   7578 ****       -14.0000   1.2500  21.7500 Du        
   7579 ****       -14.0000   1.2500  22.0000 Du        
   7580 ****       -14.0000   1.2500  22.2500 Du        
   7581 ****       -14.0000   1.5000  21.0000 Du        
   7582 ****       -14.0000   1.5000  21.2500 Du        
   7583 ****       -14.0000   1.5000  21.5000 Du        
   7584 ****       -14.0000   1.5000  21.7500 Du        
   7585 ****       -14.0000   1.5000  22.0000 Du        
   7586 ****       -14.0000   1.7500  21.0000 Du        
   7587 ****       -14.0000   1.7500  21.2500 Du        
   7588 ****       -14.0000   1.7500  21.5000 Du        
   7589 ****       -14.0000   1.7500  21.7500 Du        
   7590 ****       -14.0000   1.7500  22.0000 Du        
   7591 ****       -14.0000   2.0000  21.2500 Du        
   7592 ****       -14.0000   2.0000  21.5000 Du        
   7593 ****       -14.0000   4.2500  15.2500 Du        
   7594 ****       -14.0000   4.2500  15.5000 Du        
   7595 ****       -14.0000   4.2500  15.7500 Du        
   7596 ****       -14.0000   4.2500  16.0000 Du        
   7597 ****       -14.0000   4.2500  16.2500 Du        
   7598 ****       -14.0000   4.2500  16.5000 Du        
   7599 ****       -14.0000   4.2500  16.7500 Du        
   7600 ****       -14.0000   4.2500  17.0000 Du        
   7601 ****       -14.0000   4.2500  17.2500 Du        
   7602 ****       -14.0000   4.2500  17.5000 Du        
   7603 ****       -14.0000   4.2500  17.7500 Du        
   7604 ****       -14.0000   4.5000  14.7500 Du        
   7605 ****       -14.0000   4.5000  15.0000 Du        
   7606 ****       -14.0000   4.5000  15.2500 Du        
   7607 ****       -14.0000   4.5000  15.5000 Du        
   7608 ****       -14.0000   4.5000  15.7500 Du        
   7609 ****       -14.0000   4.5000  16.0000 Du        
   7610 ****       -14.0000   4.5000  16.2500 Du        
   7611 ****       -14.0000   4.5000  16.5000 Du        
   7612 ****       -14.0000   4.5000  16.7500 Du        
   7613 ****       -14.0000   4.5000  17.0000 Du        
   7614 ****       -14.0000   4.5000  17.2500 Du        
   7615 ****       -14.0000   4.5000  17.5000 Du        
   7616 ****       -14.0000   4.5000  17.7500 Du        
   7617 ****       -14.0000   4.5000  18.0000 Du        
   7618 ****       -14.0000   4.7500  14.0000 Du        
   7619 ****       -14.0000   4.7500  14.2500 Du        
   7620 ****       -14.0000   4.7500  14.5000 Du        
   7621 ****       -14.0000   4.7500  14.7500 Du        
   7622 ****       -14.0000   4.7500  15.0000 Du        
   7623 ****       -14.0000   4.7500  15.2500 Du        
   7624 ****       -14.0000   4.7500  15.5000 Du        
   7625 ****       -14.0000   4.7500  15.7500 Du        
   7626 ****       -14.0000   4.7500  16.0000 Du        
   7627 ****       -14.0000   4.7500  16.2500 Du        
   7628 ****       -14.0000   4.7500  16.5000 Du        
   7629 ****       -14.0000   4.7500  16.7500 Du        
   7630 ****       -14.0000   4.7500  17.0000 Du        
   7631 ****       -14.0000   4.7500  17.2500 Du        
   7632 ****       -14.0000   4.7500  17.5000 Du        
   7633 ****       -14.0000   4.7500  17.7500 Du        
   7634 ****       -14.0000   4.7500  18.0000 Du        
   7635 ****       -14.0000   5.0000  13.7500 Du        
   7636 ****       -14.0000   5.0000  14.0000 Du        
   7637 ****       -14.0000   5.0000  14.2500 Du        
   7638 ****       -14.0000   5.0000  14.5000 Du        
   7639 ****       -14.0000   5.0000  14.7500 Du        
   7640 ****       -14.0000   5.0000  15.0000 Du        
   7641 ****       -14.0000   5.0000  15.2500 Du        
   7642 ****       -14.0000   5.0000  15.5000 Du        
   7643 ****       -14.0000   5.0000  15.7500 Du        
   7644 ****       -14.0000   5.0000  16.0000 Du        
   7645 ****       -14.0000   5.0000  16.2500 Du        
   7646 ****       -14.0000   5.0000  16.5000 Du        
   7647 ****       -14.0000   5.0000  16.7500 Du        
   7648 ****       -14.0000   5.0000  17.0000 Du        
   7649 ****       -14.0000   5.0000  17.2500 Du        
   7650 ****       -14.0000   5.0000  17.5000 Du        
   7651 ****       -14.0000   5.0000  17.7500 Du        
   7652 ****       -14.0000   5.0000  18.0000 Du        
   7653 ****       -14.0000   5.2500  13.2500 Du        
   7654 ****       -14.0000   5.2500  13.5000 Du        
   7655 ****       -14.0000   5.2500  13.7500 Du        
   7656 ****       -14.0000   5.2500  14.0000 Du        
   7657 ****       -14.0000   5.2500  14.2500 Du        
   7658 ****       -14.0000   5.2500  14.5000 Du        
   7659 ****       -14.0000   5.2500  14.7500 Du        
   7660 ****       -14.0000   5.2500  15.0000 Du        
   7661 ****       -14.0000   5.2500  15.2500 Du        
   7662 ****       -14.0000   5.2500  15.5000 Du        
   7663 ****       -14.0000   5.2500  15.7500 Du        
   7664 ****       -14.0000   5.2500  16.0000 Du        
   7665 ****       -14.0000   5.2500  16.2500 Du        
   7666 ****       -14.0000   5.2500  16.5000 Du        
   7667 ****       -14.0000   5.2500  16.7500 Du        
   7668 ****       -14.0000   5.2500  17.0000 Du        
   7669 ****       -14.0000   5.2500  17.2500 Du        
   7670 ****       -14.0000   5.2500  17.5000 Du        
   7671 ****       -14.0000   5.2500  17.7500 Du        
   7672 ****       -14.0000   5.5000  13.0000 Du        
   7673 ****       -14.0000   5.5000  13.2500 Du        
   7674 ****       -14.0000   5.5000  13.5000 Du        
   7675 ****       -14.0000   5.5000  13.7500 Du        
   7676 ****       -14.0000   5.5000  14.0000 Du        
   7677 ****       -14.0000   5.5000  14.2500 Du        
   7678 ****       -14.0000   5.5000  14.5000 Du        
   7679 ****       -14.0000   5.5000  14.7500 Du        
   7680 ****       -14.0000   5.5000  15.0000 Du        
   7681 ****       -14.0000   5.5000  15.2500 Du        
   7682 ****       -14.0000   5.5000  15.5000 Du        
   7683 ****       -14.0000   5.5000  15.7500 Du        
   7684 ****       -14.0000   5.5000  16.0000 Du        
   7685 ****       -14.0000   5.5000  16.2500 Du        
   7686 ****       -14.0000   5.5000  16.5000 Du        
   7687 ****       -14.0000   5.5000  16.7500 Du        
   7688 ****       -14.0000   5.5000  17.0000 Du        
   7689 ****       -14.0000   5.5000  17.2500 Du        
   7690 ****       -14.0000   5.7500  13.0000 Du        
   7691 ****       -14.0000   5.7500  13.2500 Du        
   7692 ****       -14.0000   5.7500  13.5000 Du        
   7693 ****       -14.0000   5.7500  13.7500 Du        
   7694 ****       -14.0000   5.7500  14.0000 Du        
   7695 ****       -14.0000   5.7500  14.2500 Du        
   7696 ****       -14.0000   5.7500  14.5000 Du        
   7697 ****       -14.0000   5.7500  14.7500 Du        
   7698 ****       -14.0000   5.7500  15.0000 Du        
   7699 ****       -14.0000   5.7500  15.2500 Du        
   7700 ****       -14.0000   5.7500  15.5000 Du        
   7701 ****       -14.0000   5.7500  15.7500 Du        
   7702 ****       -14.0000   5.7500  16.0000 Du        
   7703 ****       -14.0000   5.7500  16.2500 Du        
   7704 ****       -14.0000   5.7500  16.5000 Du        
   7705 ****       -14.0000   5.7500  16.7500 Du        
   7706 ****       -14.0000   5.7500  17.0000 Du        
   7707 ****       -14.0000   5.7500  17.2500 Du        
   7708 ****       -14.0000   6.0000  13.0000 Du        
   7709 ****       -14.0000   6.0000  13.2500 Du        
   7710 ****       -14.0000   6.0000  13.5000 Du        
   7711 ****       -14.0000   6.0000  13.7500 Du        
   7712 ****       -14.0000   6.0000  14.0000 Du        
   7713 ****       -14.0000   6.0000  14.2500 Du        
   7714 ****       -14.0000   6.0000  14.5000 Du        
   7715 ****       -14.0000   6.0000  14.7500 Du        
   7716 ****       -14.0000   6.0000  15.0000 Du        
   7717 ****       -14.0000   6.0000  15.2500 Du        
   7718 ****       -14.0000   6.0000  15.5000 Du        
   7719 ****       -14.0000   6.0000  15.7500 Du        
   7720 ****       -14.0000   6.0000  16.0000 Du        
   7721 ****       -14.0000   6.0000  16.2500 Du        
   7722 ****       -14.0000   6.0000  16.5000 Du        
   7723 ****       -14.0000   6.0000  16.7500 Du        
   7724 ****       -14.0000   6.2500  13.0000 Du        
   7725 ****       -14.0000   6.2500  13.2500 Du        
   7726 ****       -14.0000   6.2500  13.5000 Du        
   7727 ****       -14.0000   6.2500  13.7500 Du        
   7728 ****       -14.0000   6.2500  14.0000 Du        
   7729 ****       -14.0000   6.2500  14.2500 Du        
   7730 ****       -14.0000   6.2500  14.5000 Du        
   7731 ****       -14.0000   6.2500  14.7500 Du        
   7732 ****       -14.0000   6.2500  15.0000 Du        
   7733 ****       -14.0000   6.2500  15.2500 Du        
   7734 ****       -14.0000   6.2500  15.5000 Du        
   7735 ****       -14.0000   6.2500  15.7500 Du        
   7736 ****       -14.0000   6.2500  16.0000 Du        
   7737 ****       -14.0000   6.2500  16.2500 Du        
   7738 ****       -14.0000   6.5000  13.2500 Du        
   7739 ****       -14.0000   6.5000  13.5000 Du        
   7740 ****       -14.0000   6.5000  13.7500 Du        
   7741 ****       -14.0000   6.5000  14.0000 Du        
   7742 ****       -14.0000   6.5000  14.2500 Du        
   7743 ****       -14.0000   6.5000  14.5000 Du        
   7744 ****       -14.0000   6.5000  14.7500 Du        
   7745 ****       -14.0000   6.5000  15.0000 Du        
   7746 ****       -14.0000   6.5000  15.2500 Du        
   7747 ****       -14.0000   6.5000  15.5000 Du        
   7748 ****       -14.0000   6.5000  15.7500 Du        
   7749 ****       -14.0000   6.7500  13.2500 Du        
   7750 ****       -14.0000   6.7500  13.5000 Du        
   7751 ****       -14.0000   6.7500  13.7500 Du        
   7752 ****       -14.0000   6.7500  14.0000 Du        
   7753 ****       -14.0000   6.7500  14.2500 Du        
   7754 ****       -14.0000   6.7500  14.5000 Du        
   7755 ****       -14.0000   6.7500  14.7500 Du        
   7756 ****       -14.0000   6.7500  15.0000 Du        
   7757 ****       -14.0000   6.7500  15.2500 Du        
   7758 ****       -14.0000   7.0000  13.2500 Du        
   7759 ****       -14.0000   7.0000  13.5000 Du        
   7760 ****       -14.0000   7.0000  13.7500 Du        
   7761 ****       -14.0000   7.0000  14.0000 Du        
   7762 ****       -14.0000   7.0000  14.2500 Du        
   7763 ****       -14.0000   7.0000  14.5000 Du        
   7764 ****       -14.0000   7.0000  14.7500 Du        
   7765 ****       -14.0000   7.0000  15.0000 Du        
   7766 ****       -14.0000   7.2500  13.2500 Du        
   7767 ****       -14.0000   7.2500  13.5000 Du        
   7768 ****       -14.0000   7.2500  13.7500 Du        
   7769 ****       -14.0000   7.2500  14.0000 Du        
   7770 ****       -14.0000   7.2500  14.2500 Du        
   7771 ****       -14.0000   7.2500  14.5000 Du        
   7772 ****       -14.0000  10.7500  22.2500 Du        
   7773 ****       -14.0000  11.0000  22.2500 Du        
   7774 ****       -14.0000  11.0000  22.5000 Du        
   7775 ****       -14.0000  11.0000  22.7500 Du        
   7776 ****       -14.0000  11.0000  23.0000 Du        
   7777 ****       -14.0000  11.2500  22.2500 Du        
   7778 ****       -14.0000  11.2500  22.5000 Du        
   7779 ****       -14.0000  11.2500  22.7500 Du        
   7780 ****       -14.0000  11.2500  23.0000 Du        
   7781 ****       -14.0000  11.2500  23.2500 Du        
   7782 ****       -14.0000  11.5000  22.2500 Du        
   7783 ****       -14.0000  11.5000  22.5000 Du        
   7784 ****       -14.0000  11.5000  22.7500 Du        
   7785 ****       -14.0000  11.5000  23.0000 Du        
   7786 ****       -14.0000  11.5000  23.2500 Du        
   7787 ****       -14.0000  11.5000  23.5000 Du        
   7788 ****       -14.0000  11.5000  23.7500 Du        
   7789 ****       -14.0000  11.7500  22.2500 Du        
   7790 ****       -14.0000  11.7500  22.5000 Du        
   7791 ****       -14.0000  11.7500  22.7500 Du        
   7792 ****       -14.0000  11.7500  23.0000 Du        
   7793 ****       -14.0000  11.7500  23.2500 Du        
   7794 ****       -14.0000  11.7500  23.5000 Du        
   7795 ****       -14.0000  11.7500  23.7500 Du        
   7796 ****       -14.0000  11.7500  24.0000 Du        
   7797 ****       -14.0000  11.7500  24.2500 Du        
   7798 ****       -14.0000  12.0000  22.5000 Du        
   7799 ****       -14.0000  12.0000  22.7500 Du        
   7800 ****       -14.0000  12.0000  23.0000 Du        
   7801 ****       -14.0000  12.0000  23.2500 Du        
   7802 ****       -14.0000  12.0000  23.5000 Du        
   7803 ****       -14.0000  12.0000  23.7500 Du        
   7804 ****       -14.0000  12.0000  24.0000 Du        
   7805 ****       -14.0000  12.0000  24.2500 Du        
   7806 ****       -14.0000  12.0000  24.5000 Du        
   7807 ****       -14.0000  12.2500  22.7500 Du        
   7808 ****       -14.0000  12.2500  23.0000 Du        
   7809 ****       -14.0000  12.2500  23.2500 Du        
   7810 ****       -14.0000  12.2500  23.5000 Du        
   7811 ****       -14.0000  12.2500  23.7500 Du        
   7812 ****       -14.0000  12.2500  24.0000 Du        
   7813 ****       -14.0000  12.2500  24.2500 Du        
   7814 ****       -14.0000  12.2500  24.5000 Du        
   7815 ****       -14.0000  12.2500  24.7500 Du        
   7816 ****       -14.0000  12.5000  23.0000 Du        
   7817 ****       -14.0000  12.5000  23.2500 Du        
   7818 ****       -14.0000  12.5000  23.5000 Du        
   7819 ****       -14.0000  12.5000  23.7500 Du        
   7820 ****       -14.0000  12.5000  24.0000 Du        
   7821 ****       -14.0000  12.5000  24.2500 Du        
   7822 ****       -14.0000  12.5000  24.5000 Du        
   7823 ****       -14.0000  12.5000  24.7500 Du        
   7824 ****       -14.0000  12.7500  12.7500 Du        
   7825 ****       -14.0000  12.7500  23.5000 Du        
   7826 ****       -14.0000  12.7500  23.7500 Du        
   7827 ****       -14.0000  12.7500  24.0000 Du        
   7828 ****       -14.0000  12.7500  24.2500 Du        
   7829 ****       -14.0000  12.7500  24.5000 Du        
   7830 ****       -14.0000  13.0000  12.7500 Du        
   7831 ****       -14.0000  13.0000  13.0000 Du        
   7832 ****       -14.0000  13.0000  23.7500 Du        
   7833 ****       -14.0000  13.0000  24.0000 Du        
   7834 ****       -14.0000  13.0000  24.2500 Du        
   7835 ****       -13.7500  -8.2500  22.2500 Du        
   7836 ****       -13.7500  -8.2500  22.5000 Du        
   7837 ****       -13.7500  -8.0000  22.0000 Du        
   7838 ****       -13.7500  -8.0000  22.2500 Du        
   7839 ****       -13.7500  -8.0000  22.5000 Du        
   7840 ****       -13.7500  -8.0000  22.7500 Du        
   7841 ****       -13.7500  -8.0000  23.0000 Du        
   7842 ****       -13.7500  -8.0000  23.2500 Du        
   7843 ****       -13.7500  -7.7500  21.7500 Du        
   7844 ****       -13.7500  -7.7500  22.0000 Du        
   7845 ****       -13.7500  -7.7500  22.2500 Du        
   7846 ****       -13.7500  -7.7500  22.5000 Du        
   7847 ****       -13.7500  -7.7500  22.7500 Du        
   7848 ****       -13.7500  -7.7500  23.0000 Du        
   7849 ****       -13.7500  -7.7500  23.2500 Du        
   7850 ****       -13.7500  -7.7500  23.5000 Du        
   7851 ****       -13.7500  -7.7500  23.7500 Du        
   7852 ****       -13.7500  -7.5000  21.2500 Du        
   7853 ****       -13.7500  -7.5000  21.5000 Du        
   7854 ****       -13.7500  -7.5000  21.7500 Du        
   7855 ****       -13.7500  -7.5000  22.0000 Du        
   7856 ****       -13.7500  -7.5000  22.2500 Du        
   7857 ****       -13.7500  -7.5000  22.5000 Du        
   7858 ****       -13.7500  -7.5000  22.7500 Du        
   7859 ****       -13.7500  -7.5000  23.0000 Du        
   7860 ****       -13.7500  -7.5000  23.2500 Du        
   7861 ****       -13.7500  -7.5000  23.5000 Du        
   7862 ****       -13.7500  -7.5000  23.7500 Du        
   7863 ****       -13.7500  -7.5000  24.0000 Du        
   7864 ****       -13.7500  -7.5000  24.2500 Du        
   7865 ****       -13.7500  -7.2500  21.0000 Du        
   7866 ****       -13.7500  -7.2500  21.2500 Du        
   7867 ****       -13.7500  -7.2500  21.5000 Du        
   7868 ****       -13.7500  -7.2500  21.7500 Du        
   7869 ****       -13.7500  -7.2500  22.0000 Du        
   7870 ****       -13.7500  -7.2500  22.2500 Du        
   7871 ****       -13.7500  -7.2500  22.5000 Du        
   7872 ****       -13.7500  -7.2500  22.7500 Du        
   7873 ****       -13.7500  -7.2500  23.0000 Du        
   7874 ****       -13.7500  -7.2500  23.2500 Du        
   7875 ****       -13.7500  -7.2500  23.5000 Du        
   7876 ****       -13.7500  -7.2500  23.7500 Du        
   7877 ****       -13.7500  -7.2500  24.0000 Du        
   7878 ****       -13.7500  -7.2500  24.2500 Du        
   7879 ****       -13.7500  -7.2500  24.5000 Du        
   7880 ****       -13.7500  -7.0000  20.7500 Du        
   7881 ****       -13.7500  -7.0000  21.0000 Du        
   7882 ****       -13.7500  -7.0000  21.2500 Du        
   7883 ****       -13.7500  -7.0000  21.5000 Du        
   7884 ****       -13.7500  -7.0000  21.7500 Du        
   7885 ****       -13.7500  -7.0000  22.0000 Du        
   7886 ****       -13.7500  -7.0000  22.2500 Du        
   7887 ****       -13.7500  -7.0000  22.5000 Du        
   7888 ****       -13.7500  -7.0000  22.7500 Du        
   7889 ****       -13.7500  -7.0000  23.0000 Du        
   7890 ****       -13.7500  -7.0000  23.2500 Du        
   7891 ****       -13.7500  -7.0000  23.5000 Du        
   7892 ****       -13.7500  -7.0000  23.7500 Du        
   7893 ****       -13.7500  -7.0000  24.0000 Du        
   7894 ****       -13.7500  -7.0000  24.2500 Du        
   7895 ****       -13.7500  -7.0000  24.5000 Du        
   7896 ****       -13.7500  -6.7500  20.5000 Du        
   7897 ****       -13.7500  -6.7500  20.7500 Du        
   7898 ****       -13.7500  -6.7500  21.0000 Du        
   7899 ****       -13.7500  -6.7500  21.2500 Du        
   7900 ****       -13.7500  -6.7500  21.5000 Du        
   7901 ****       -13.7500  -6.7500  21.7500 Du        
   7902 ****       -13.7500  -6.7500  22.0000 Du        
   7903 ****       -13.7500  -6.7500  22.2500 Du        
   7904 ****       -13.7500  -6.7500  22.5000 Du        
   7905 ****       -13.7500  -6.7500  22.7500 Du        
   7906 ****       -13.7500  -6.7500  23.0000 Du        
   7907 ****       -13.7500  -6.7500  23.2500 Du        
   7908 ****       -13.7500  -6.7500  23.5000 Du        
   7909 ****       -13.7500  -6.7500  23.7500 Du        
   7910 ****       -13.7500  -6.7500  24.0000 Du        
   7911 ****       -13.7500  -6.7500  24.2500 Du        
   7912 ****       -13.7500  -6.5000  20.5000 Du        
   7913 ****       -13.7500  -6.5000  20.7500 Du        
   7914 ****       -13.7500  -6.5000  21.0000 Du        
   7915 ****       -13.7500  -6.5000  21.2500 Du        
   7916 ****       -13.7500  -6.5000  21.5000 Du        
   7917 ****       -13.7500  -6.5000  21.7500 Du        
   7918 ****       -13.7500  -6.5000  22.0000 Du        
   7919 ****       -13.7500  -6.5000  22.2500 Du        
   7920 ****       -13.7500  -6.5000  22.5000 Du        
   7921 ****       -13.7500  -6.5000  22.7500 Du        
   7922 ****       -13.7500  -6.5000  23.0000 Du        
   7923 ****       -13.7500  -6.5000  23.2500 Du        
   7924 ****       -13.7500  -6.5000  23.5000 Du        
   7925 ****       -13.7500  -6.5000  23.7500 Du        
   7926 ****       -13.7500  -6.5000  24.0000 Du        
   7927 ****       -13.7500  -6.2500  20.5000 Du        
   7928 ****       -13.7500  -6.2500  20.7500 Du        
   7929 ****       -13.7500  -6.2500  21.0000 Du        
   7930 ****       -13.7500  -6.2500  21.2500 Du        
   7931 ****       -13.7500  -6.2500  21.5000 Du        
   7932 ****       -13.7500  -6.2500  21.7500 Du        
   7933 ****       -13.7500  -6.2500  22.0000 Du        
   7934 ****       -13.7500  -6.2500  22.2500 Du        
   7935 ****       -13.7500  -6.2500  22.5000 Du        
   7936 ****       -13.7500  -6.2500  22.7500 Du        
   7937 ****       -13.7500  -6.2500  23.0000 Du        
   7938 ****       -13.7500  -6.2500  23.2500 Du        
   7939 ****       -13.7500  -6.2500  23.5000 Du        
   7940 ****       -13.7500  -6.2500  23.7500 Du        
   7941 ****       -13.7500  -6.2500  24.0000 Du        
   7942 ****       -13.7500  -6.0000  20.7500 Du        
   7943 ****       -13.7500  -6.0000  21.0000 Du        
   7944 ****       -13.7500  -6.0000  21.2500 Du        
   7945 ****       -13.7500  -6.0000  21.5000 Du        
   7946 ****       -13.7500  -6.0000  21.7500 Du        
   7947 ****       -13.7500  -6.0000  22.0000 Du        
   7948 ****       -13.7500  -6.0000  22.2500 Du        
   7949 ****       -13.7500  -6.0000  22.5000 Du        
   7950 ****       -13.7500  -6.0000  22.7500 Du        
   7951 ****       -13.7500  -6.0000  23.0000 Du        
   7952 ****       -13.7500  -6.0000  23.2500 Du        
   7953 ****       -13.7500  -6.0000  23.5000 Du        
   7954 ****       -13.7500  -6.0000  23.7500 Du        
   7955 ****       -13.7500  -5.7500  21.2500 Du        
   7956 ****       -13.7500  -5.7500  21.5000 Du        
   7957 ****       -13.7500  -5.7500  21.7500 Du        
   7958 ****       -13.7500  -5.7500  22.0000 Du        
   7959 ****       -13.7500  -5.7500  22.2500 Du        
   7960 ****       -13.7500  -5.7500  22.5000 Du        
   7961 ****       -13.7500  -5.7500  22.7500 Du        
   7962 ****       -13.7500  -5.7500  23.0000 Du        
   7963 ****       -13.7500  -5.7500  23.2500 Du        
   7964 ****       -13.7500  -5.7500  23.5000 Du        
   7965 ****       -13.7500  -5.7500  23.7500 Du        
   7966 ****       -13.7500  -5.5000  21.7500 Du        
   7967 ****       -13.7500  -5.5000  22.0000 Du        
   7968 ****       -13.7500  -5.5000  22.2500 Du        
   7969 ****       -13.7500  -5.5000  22.5000 Du        
   7970 ****       -13.7500  -5.5000  22.7500 Du        
   7971 ****       -13.7500  -5.5000  23.0000 Du        
   7972 ****       -13.7500  -5.5000  23.2500 Du        
   7973 ****       -13.7500  -5.5000  23.5000 Du        
   7974 ****       -13.7500  -5.2500  22.0000 Du        
   7975 ****       -13.7500  -5.2500  22.2500 Du        
   7976 ****       -13.7500  -5.2500  22.5000 Du        
   7977 ****       -13.7500  -5.2500  22.7500 Du        
   7978 ****       -13.7500  -5.2500  23.0000 Du        
   7979 ****       -13.7500  -5.2500  23.2500 Du        
   7980 ****       -13.7500  -5.2500  23.5000 Du        
   7981 ****       -13.7500  -5.0000  22.5000 Du        
   7982 ****       -13.7500  -5.0000  22.7500 Du        
   7983 ****       -13.7500  -5.0000  23.0000 Du        
   7984 ****       -13.7500  -5.0000  23.2500 Du        
   7985 ****       -13.7500  -4.7500  22.7500 Du        
   7986 ****       -13.7500  -4.7500  23.0000 Du        
   7987 ****       -13.7500  -4.7500  23.2500 Du        
   7988 ****       -13.7500  -4.5000  23.0000 Du        
   7989 ****       -13.7500  -4.5000  23.2500 Du        
   7990 ****       -13.7500  -4.2500  23.0000 Du        
   7991 ****       -13.7500  -4.2500  23.2500 Du        
   7992 ****       -13.7500  -4.0000  23.2500 Du        
   7993 ****       -13.7500  -4.0000  30.5000 Du        
   7994 ****       -13.7500  -4.0000  30.7500 Du        
   7995 ****       -13.7500  -3.7500  23.2500 Du        
   7996 ****       -13.7500  -3.7500  30.5000 Du        
   7997 ****       -13.7500  -1.7500  23.0000 Du        
   7998 ****       -13.7500  -1.7500  23.2500 Du        
   7999 ****       -13.7500  -1.5000  23.0000 Du        
   8000 ****       -13.7500  -1.2500  22.7500 Du        
   8001 ****       -13.7500  -1.2500  23.0000 Du        
   8002 ****       -13.7500  -1.0000  22.2500 Du        
   8003 ****       -13.7500  -1.0000  22.7500 Du        
   8004 ****       -13.7500  -1.0000  23.0000 Du        
   8005 ****       -13.7500  -0.7500  22.0000 Du        
   8006 ****       -13.7500  -0.7500  22.2500 Du        
   8007 ****       -13.7500  -0.7500  22.5000 Du        
   8008 ****       -13.7500  -0.7500  22.7500 Du        
   8009 ****       -13.7500  -0.5000  21.7500 Du        
   8010 ****       -13.7500  -0.5000  22.0000 Du        
   8011 ****       -13.7500  -0.5000  22.2500 Du        
   8012 ****       -13.7500  -0.5000  22.5000 Du        
   8013 ****       -13.7500  -0.5000  22.7500 Du        
   8014 ****       -13.7500  -0.2500  21.2500 Du        
   8015 ****       -13.7500  -0.2500  21.5000 Du        
   8016 ****       -13.7500  -0.2500  21.7500 Du        
   8017 ****       -13.7500  -0.2500  22.0000 Du        
   8018 ****       -13.7500  -0.2500  22.2500 Du        
   8019 ****       -13.7500  -0.2500  22.5000 Du        
   8020 ****       -13.7500   0.0000  21.0000 Du        
   8021 ****       -13.7500   0.0000  21.2500 Du        
   8022 ****       -13.7500   0.0000  21.5000 Du        
   8023 ****       -13.7500   0.0000  21.7500 Du        
   8024 ****       -13.7500   0.0000  22.0000 Du        
   8025 ****       -13.7500   0.0000  22.2500 Du        
   8026 ****       -13.7500   0.0000  22.5000 Du        
   8027 ****       -13.7500   0.2500  20.5000 Du        
   8028 ****       -13.7500   0.2500  20.7500 Du        
   8029 ****       -13.7500   0.2500  21.0000 Du        
   8030 ****       -13.7500   0.2500  21.2500 Du        
   8031 ****       -13.7500   0.2500  21.5000 Du        
   8032 ****       -13.7500   0.2500  21.7500 Du        
   8033 ****       -13.7500   0.2500  22.0000 Du        
   8034 ****       -13.7500   0.2500  22.2500 Du        
   8035 ****       -13.7500   0.5000  20.5000 Du        
   8036 ****       -13.7500   0.5000  20.7500 Du        
   8037 ****       -13.7500   0.5000  21.0000 Du        
   8038 ****       -13.7500   0.5000  21.2500 Du        
   8039 ****       -13.7500   0.5000  21.5000 Du        
   8040 ****       -13.7500   0.5000  21.7500 Du        
   8041 ****       -13.7500   0.5000  22.0000 Du        
   8042 ****       -13.7500   0.5000  22.2500 Du        
   8043 ****       -13.7500   0.7500  20.2500 Du        
   8044 ****       -13.7500   0.7500  20.5000 Du        
   8045 ****       -13.7500   0.7500  20.7500 Du        
   8046 ****       -13.7500   0.7500  21.0000 Du        
   8047 ****       -13.7500   0.7500  21.2500 Du        
   8048 ****       -13.7500   0.7500  21.5000 Du        
   8049 ****       -13.7500   0.7500  21.7500 Du        
   8050 ****       -13.7500   0.7500  22.0000 Du        
   8051 ****       -13.7500   0.7500  22.2500 Du        
   8052 ****       -13.7500   1.0000  20.2500 Du        
   8053 ****       -13.7500   1.0000  20.5000 Du        
   8054 ****       -13.7500   1.0000  20.7500 Du        
   8055 ****       -13.7500   1.0000  21.0000 Du        
   8056 ****       -13.7500   1.0000  21.2500 Du        
   8057 ****       -13.7500   1.0000  21.5000 Du        
   8058 ****       -13.7500   1.0000  21.7500 Du        
   8059 ****       -13.7500   1.0000  22.0000 Du        
   8060 ****       -13.7500   1.0000  22.2500 Du        
   8061 ****       -13.7500   1.2500  20.2500 Du        
   8062 ****       -13.7500   1.2500  20.5000 Du        
   8063 ****       -13.7500   1.2500  20.7500 Du        
   8064 ****       -13.7500   1.2500  21.0000 Du        
   8065 ****       -13.7500   1.2500  21.2500 Du        
   8066 ****       -13.7500   1.2500  21.5000 Du        
   8067 ****       -13.7500   1.2500  21.7500 Du        
   8068 ****       -13.7500   1.2500  22.0000 Du        
   8069 ****       -13.7500   1.5000  20.2500 Du        
   8070 ****       -13.7500   1.5000  20.5000 Du        
   8071 ****       -13.7500   1.5000  20.7500 Du        
   8072 ****       -13.7500   1.5000  21.0000 Du        
   8073 ****       -13.7500   1.5000  21.2500 Du        
   8074 ****       -13.7500   1.5000  21.5000 Du        
   8075 ****       -13.7500   1.5000  21.7500 Du        
   8076 ****       -13.7500   1.5000  22.0000 Du        
   8077 ****       -13.7500   1.7500  20.5000 Du        
   8078 ****       -13.7500   1.7500  20.7500 Du        
   8079 ****       -13.7500   1.7500  21.0000 Du        
   8080 ****       -13.7500   1.7500  21.2500 Du        
   8081 ****       -13.7500   2.0000  20.7500 Du        
   8082 ****       -13.7500   4.0000  16.0000 Du        
   8083 ****       -13.7500   4.0000  16.2500 Du        
   8084 ****       -13.7500   4.0000  16.5000 Du        
   8085 ****       -13.7500   4.0000  16.7500 Du        
   8086 ****       -13.7500   4.0000  17.0000 Du        
   8087 ****       -13.7500   4.0000  17.2500 Du        
   8088 ****       -13.7500   4.2500  15.2500 Du        
   8089 ****       -13.7500   4.2500  15.5000 Du        
   8090 ****       -13.7500   4.2500  15.7500 Du        
   8091 ****       -13.7500   4.2500  16.0000 Du        
   8092 ****       -13.7500   4.2500  16.2500 Du        
   8093 ****       -13.7500   4.2500  16.5000 Du        
   8094 ****       -13.7500   4.2500  16.7500 Du        
   8095 ****       -13.7500   4.2500  17.0000 Du        
   8096 ****       -13.7500   4.2500  17.2500 Du        
   8097 ****       -13.7500   4.2500  17.5000 Du        
   8098 ****       -13.7500   4.2500  17.7500 Du        
   8099 ****       -13.7500   4.2500  18.0000 Du        
   8100 ****       -13.7500   4.5000  15.0000 Du        
   8101 ****       -13.7500   4.5000  15.2500 Du        
   8102 ****       -13.7500   4.5000  15.5000 Du        
   8103 ****       -13.7500   4.5000  15.7500 Du        
   8104 ****       -13.7500   4.5000  16.0000 Du        
   8105 ****       -13.7500   4.5000  16.2500 Du        
   8106 ****       -13.7500   4.5000  16.5000 Du        
   8107 ****       -13.7500   4.5000  16.7500 Du        
   8108 ****       -13.7500   4.5000  17.0000 Du        
   8109 ****       -13.7500   4.5000  17.2500 Du        
   8110 ****       -13.7500   4.5000  17.5000 Du        
   8111 ****       -13.7500   4.5000  17.7500 Du        
   8112 ****       -13.7500   4.5000  18.0000 Du        
   8113 ****       -13.7500   4.7500  14.7500 Du        
   8114 ****       -13.7500   4.7500  15.0000 Du        
   8115 ****       -13.7500   4.7500  15.2500 Du        
   8116 ****       -13.7500   4.7500  15.5000 Du        
   8117 ****       -13.7500   4.7500  15.7500 Du        
   8118 ****       -13.7500   4.7500  16.0000 Du        
   8119 ****       -13.7500   4.7500  16.2500 Du        
   8120 ****       -13.7500   4.7500  16.5000 Du        
   8121 ****       -13.7500   4.7500  16.7500 Du        
   8122 ****       -13.7500   4.7500  17.0000 Du        
   8123 ****       -13.7500   4.7500  17.2500 Du        
   8124 ****       -13.7500   4.7500  17.5000 Du        
   8125 ****       -13.7500   4.7500  17.7500 Du        
   8126 ****       -13.7500   4.7500  18.0000 Du        
   8127 ****       -13.7500   5.0000  14.2500 Du        
   8128 ****       -13.7500   5.0000  14.5000 Du        
   8129 ****       -13.7500   5.0000  14.7500 Du        
   8130 ****       -13.7500   5.0000  15.0000 Du        
   8131 ****       -13.7500   5.0000  15.2500 Du        
   8132 ****       -13.7500   5.0000  15.5000 Du        
   8133 ****       -13.7500   5.0000  15.7500 Du        
   8134 ****       -13.7500   5.0000  16.0000 Du        
   8135 ****       -13.7500   5.0000  16.2500 Du        
   8136 ****       -13.7500   5.0000  16.5000 Du        
   8137 ****       -13.7500   5.0000  16.7500 Du        
   8138 ****       -13.7500   5.0000  17.0000 Du        
   8139 ****       -13.7500   5.0000  17.2500 Du        
   8140 ****       -13.7500   5.0000  17.5000 Du        
   8141 ****       -13.7500   5.0000  17.7500 Du        
   8142 ****       -13.7500   5.0000  18.0000 Du        
   8143 ****       -13.7500   5.2500  13.7500 Du        
   8144 ****       -13.7500   5.2500  14.0000 Du        
   8145 ****       -13.7500   5.2500  14.2500 Du        
   8146 ****       -13.7500   5.2500  14.5000 Du        
   8147 ****       -13.7500   5.2500  14.7500 Du        
   8148 ****       -13.7500   5.2500  15.0000 Du        
   8149 ****       -13.7500   5.2500  15.2500 Du        
   8150 ****       -13.7500   5.2500  15.5000 Du        
   8151 ****       -13.7500   5.2500  15.7500 Du        
   8152 ****       -13.7500   5.2500  16.0000 Du        
   8153 ****       -13.7500   5.2500  16.2500 Du        
   8154 ****       -13.7500   5.2500  16.5000 Du        
   8155 ****       -13.7500   5.2500  16.7500 Du        
   8156 ****       -13.7500   5.2500  17.0000 Du        
   8157 ****       -13.7500   5.2500  17.2500 Du        
   8158 ****       -13.7500   5.2500  17.5000 Du        
   8159 ****       -13.7500   5.5000  13.2500 Du        
   8160 ****       -13.7500   5.5000  13.5000 Du        
   8161 ****       -13.7500   5.5000  13.7500 Du        
   8162 ****       -13.7500   5.5000  14.0000 Du        
   8163 ****       -13.7500   5.5000  14.2500 Du        
   8164 ****       -13.7500   5.5000  14.5000 Du        
   8165 ****       -13.7500   5.5000  14.7500 Du        
   8166 ****       -13.7500   5.5000  15.0000 Du        
   8167 ****       -13.7500   5.5000  15.2500 Du        
   8168 ****       -13.7500   5.5000  15.5000 Du        
   8169 ****       -13.7500   5.5000  15.7500 Du        
   8170 ****       -13.7500   5.5000  16.0000 Du        
   8171 ****       -13.7500   5.5000  16.2500 Du        
   8172 ****       -13.7500   5.5000  16.5000 Du        
   8173 ****       -13.7500   5.5000  16.7500 Du        
   8174 ****       -13.7500   5.5000  17.0000 Du        
   8175 ****       -13.7500   5.5000  17.2500 Du        
   8176 ****       -13.7500   5.7500  12.7500 Du        
   8177 ****       -13.7500   5.7500  13.0000 Du        
   8178 ****       -13.7500   5.7500  13.2500 Du        
   8179 ****       -13.7500   5.7500  13.5000 Du        
   8180 ****       -13.7500   5.7500  13.7500 Du        
   8181 ****       -13.7500   5.7500  14.0000 Du        
   8182 ****       -13.7500   5.7500  14.2500 Du        
   8183 ****       -13.7500   5.7500  14.5000 Du        
   8184 ****       -13.7500   5.7500  14.7500 Du        
   8185 ****       -13.7500   5.7500  15.0000 Du        
   8186 ****       -13.7500   5.7500  15.2500 Du        
   8187 ****       -13.7500   5.7500  15.5000 Du        
   8188 ****       -13.7500   5.7500  15.7500 Du        
   8189 ****       -13.7500   5.7500  16.0000 Du        
   8190 ****       -13.7500   5.7500  16.2500 Du        
   8191 ****       -13.7500   5.7500  16.5000 Du        
   8192 ****       -13.7500   5.7500  16.7500 Du        
   8193 ****       -13.7500   5.7500  17.0000 Du        
   8194 ****       -13.7500   5.7500  17.2500 Du        
   8195 ****       -13.7500   6.0000  12.5000 Du        
   8196 ****       -13.7500   6.0000  12.7500 Du        
   8197 ****       -13.7500   6.0000  13.0000 Du        
   8198 ****       -13.7500   6.0000  13.2500 Du        
   8199 ****       -13.7500   6.0000  13.5000 Du        
   8200 ****       -13.7500   6.0000  13.7500 Du        
   8201 ****       -13.7500   6.0000  14.0000 Du        
   8202 ****       -13.7500   6.0000  14.2500 Du        
   8203 ****       -13.7500   6.0000  14.5000 Du        
   8204 ****       -13.7500   6.0000  14.7500 Du        
   8205 ****       -13.7500   6.0000  15.0000 Du        
   8206 ****       -13.7500   6.0000  15.2500 Du        
   8207 ****       -13.7500   6.0000  15.5000 Du        
   8208 ****       -13.7500   6.0000  15.7500 Du        
   8209 ****       -13.7500   6.0000  16.0000 Du        
   8210 ****       -13.7500   6.0000  16.2500 Du        
   8211 ****       -13.7500   6.0000  16.5000 Du        
   8212 ****       -13.7500   6.0000  16.7500 Du        
   8213 ****       -13.7500   6.0000  17.0000 Du        
   8214 ****       -13.7500   6.2500  12.5000 Du        
   8215 ****       -13.7500   6.2500  12.7500 Du        
   8216 ****       -13.7500   6.2500  13.0000 Du        
   8217 ****       -13.7500   6.2500  13.2500 Du        
   8218 ****       -13.7500   6.2500  13.5000 Du        
   8219 ****       -13.7500   6.2500  13.7500 Du        
   8220 ****       -13.7500   6.2500  14.0000 Du        
   8221 ****       -13.7500   6.2500  14.2500 Du        
   8222 ****       -13.7500   6.2500  14.5000 Du        
   8223 ****       -13.7500   6.2500  14.7500 Du        
   8224 ****       -13.7500   6.2500  15.0000 Du        
   8225 ****       -13.7500   6.2500  15.2500 Du        
   8226 ****       -13.7500   6.2500  15.5000 Du        
   8227 ****       -13.7500   6.2500  15.7500 Du        
   8228 ****       -13.7500   6.2500  16.0000 Du        
   8229 ****       -13.7500   6.2500  16.2500 Du        
   8230 ****       -13.7500   6.5000  12.7500 Du        
   8231 ****       -13.7500   6.5000  13.0000 Du        
   8232 ****       -13.7500   6.5000  13.2500 Du        
   8233 ****       -13.7500   6.5000  13.5000 Du        
   8234 ****       -13.7500   6.5000  13.7500 Du        
   8235 ****       -13.7500   6.5000  14.0000 Du        
   8236 ****       -13.7500   6.5000  14.2500 Du        
   8237 ****       -13.7500   6.5000  14.5000 Du        
   8238 ****       -13.7500   6.5000  14.7500 Du        
   8239 ****       -13.7500   6.5000  15.0000 Du        
   8240 ****       -13.7500   6.5000  15.2500 Du        
   8241 ****       -13.7500   6.5000  15.5000 Du        
   8242 ****       -13.7500   6.5000  15.7500 Du        
   8243 ****       -13.7500   6.5000  16.0000 Du        
   8244 ****       -13.7500   6.7500  12.7500 Du        
   8245 ****       -13.7500   6.7500  13.0000 Du        
   8246 ****       -13.7500   6.7500  13.2500 Du        
   8247 ****       -13.7500   6.7500  13.5000 Du        
   8248 ****       -13.7500   6.7500  13.7500 Du        
   8249 ****       -13.7500   6.7500  14.0000 Du        
   8250 ****       -13.7500   6.7500  14.2500 Du        
   8251 ****       -13.7500   6.7500  14.5000 Du        
   8252 ****       -13.7500   6.7500  14.7500 Du        
   8253 ****       -13.7500   6.7500  15.0000 Du        
   8254 ****       -13.7500   6.7500  15.2500 Du        
   8255 ****       -13.7500   6.7500  15.5000 Du        
   8256 ****       -13.7500   7.0000  12.7500 Du        
   8257 ****       -13.7500   7.0000  13.0000 Du        
   8258 ****       -13.7500   7.0000  13.2500 Du        
   8259 ****       -13.7500   7.0000  13.5000 Du        
   8260 ****       -13.7500   7.0000  13.7500 Du        
   8261 ****       -13.7500   7.0000  14.0000 Du        
   8262 ****       -13.7500   7.0000  14.2500 Du        
   8263 ****       -13.7500   7.0000  14.5000 Du        
   8264 ****       -13.7500   7.0000  14.7500 Du        
   8265 ****       -13.7500   7.0000  15.0000 Du        
   8266 ****       -13.7500   7.2500  12.7500 Du        
   8267 ****       -13.7500   7.2500  13.0000 Du        
   8268 ****       -13.7500   7.2500  13.2500 Du        
   8269 ****       -13.7500   7.2500  13.5000 Du        
   8270 ****       -13.7500   7.2500  13.7500 Du        
   8271 ****       -13.7500   7.2500  14.0000 Du        
   8272 ****       -13.7500   7.2500  14.2500 Du        
   8273 ****       -13.7500   7.2500  14.5000 Du        
   8274 ****       -13.7500   7.2500  14.7500 Du        
   8275 ****       -13.7500   7.5000  13.2500 Du        
   8276 ****       -13.7500   7.5000  14.2500 Du        
   8277 ****       -13.7500  11.2500  22.7500 Du        
   8278 ****       -13.7500  11.2500  23.0000 Du        
   8279 ****       -13.7500  11.5000  22.7500 Du        
   8280 ****       -13.7500  11.5000  23.0000 Du        
   8281 ****       -13.7500  11.5000  23.2500 Du        
   8282 ****       -13.7500  11.5000  23.5000 Du        
   8283 ****       -13.7500  11.5000  23.7500 Du        
   8284 ****       -13.7500  11.5000  24.0000 Du        
   8285 ****       -13.7500  11.7500  22.7500 Du        
   8286 ****       -13.7500  11.7500  23.0000 Du        
   8287 ****       -13.7500  11.7500  23.2500 Du        
   8288 ****       -13.7500  11.7500  23.5000 Du        
   8289 ****       -13.7500  11.7500  23.7500 Du        
   8290 ****       -13.7500  11.7500  24.0000 Du        
   8291 ****       -13.7500  11.7500  24.2500 Du        
   8292 ****       -13.7500  11.7500  24.5000 Du        
   8293 ****       -13.7500  12.0000  23.0000 Du        
   8294 ****       -13.7500  12.0000  23.2500 Du        
   8295 ****       -13.7500  12.0000  23.5000 Du        
   8296 ****       -13.7500  12.0000  23.7500 Du        
   8297 ****       -13.7500  12.0000  24.0000 Du        
   8298 ****       -13.7500  12.0000  24.2500 Du        
   8299 ****       -13.7500  12.0000  24.5000 Du        
   8300 ****       -13.7500  12.0000  24.7500 Du        
   8301 ****       -13.7500  12.0000  25.0000 Du        
   8302 ****       -13.7500  12.2500  23.0000 Du        
   8303 ****       -13.7500  12.2500  23.2500 Du        
   8304 ****       -13.7500  12.2500  23.5000 Du        
   8305 ****       -13.7500  12.2500  23.7500 Du        
   8306 ****       -13.7500  12.2500  24.0000 Du        
   8307 ****       -13.7500  12.2500  24.2500 Du        
   8308 ****       -13.7500  12.2500  24.5000 Du        
   8309 ****       -13.7500  12.2500  24.7500 Du        
   8310 ****       -13.7500  12.2500  25.0000 Du        
   8311 ****       -13.7500  12.5000  12.7500 Du        
   8312 ****       -13.7500  12.5000  23.2500 Du        
   8313 ****       -13.7500  12.5000  23.5000 Du        
   8314 ****       -13.7500  12.5000  23.7500 Du        
   8315 ****       -13.7500  12.5000  24.0000 Du        
   8316 ****       -13.7500  12.5000  24.2500 Du        
   8317 ****       -13.7500  12.5000  24.5000 Du        
   8318 ****       -13.7500  12.5000  24.7500 Du        
   8319 ****       -13.7500  12.5000  25.0000 Du        
   8320 ****       -13.7500  12.7500  12.5000 Du        
   8321 ****       -13.7500  12.7500  12.7500 Du        
   8322 ****       -13.7500  12.7500  13.0000 Du        
   8323 ****       -13.7500  12.7500  23.5000 Du        
   8324 ****       -13.7500  12.7500  23.7500 Du        
   8325 ****       -13.7500  12.7500  24.0000 Du        
   8326 ****       -13.7500  12.7500  24.2500 Du        
   8327 ****       -13.7500  12.7500  24.5000 Du        
   8328 ****       -13.7500  12.7500  24.7500 Du        
   8329 ****       -13.7500  13.0000  12.5000 Du        
   8330 ****       -13.7500  13.0000  12.7500 Du        
   8331 ****       -13.7500  13.0000  13.0000 Du        
   8332 ****       -13.7500  13.0000  23.7500 Du        
   8333 ****       -13.7500  13.0000  24.0000 Du        
   8334 ****       -13.7500  13.0000  24.2500 Du        
   8335 ****       -13.7500  13.0000  24.5000 Du        
   8336 ****       -13.7500  13.2500  12.7500 Du        
   8337 ****       -13.7500  13.2500  13.0000 Du        
   8338 ****       -13.5000  -7.7500  22.7500 Du        
   8339 ****       -13.5000  -7.7500  23.0000 Du        
   8340 ****       -13.5000  -7.7500  23.2500 Du        
   8341 ****       -13.5000  -7.7500  23.5000 Du        
   8342 ****       -13.5000  -7.7500  23.7500 Du        
   8343 ****       -13.5000  -7.5000  22.2500 Du        
   8344 ****       -13.5000  -7.5000  22.5000 Du        
   8345 ****       -13.5000  -7.5000  22.7500 Du        
   8346 ****       -13.5000  -7.5000  23.0000 Du        
   8347 ****       -13.5000  -7.5000  23.2500 Du        
   8348 ****       -13.5000  -7.5000  23.5000 Du        
   8349 ****       -13.5000  -7.5000  23.7500 Du        
   8350 ****       -13.5000  -7.5000  24.0000 Du        
   8351 ****       -13.5000  -7.2500  21.5000 Du        
   8352 ****       -13.5000  -7.2500  21.7500 Du        
   8353 ****       -13.5000  -7.2500  22.0000 Du        
   8354 ****       -13.5000  -7.2500  22.2500 Du        
   8355 ****       -13.5000  -7.2500  22.5000 Du        
   8356 ****       -13.5000  -7.2500  22.7500 Du        
   8357 ****       -13.5000  -7.2500  23.0000 Du        
   8358 ****       -13.5000  -7.2500  23.2500 Du        
   8359 ****       -13.5000  -7.2500  23.5000 Du        
   8360 ****       -13.5000  -7.2500  23.7500 Du        
   8361 ****       -13.5000  -7.2500  24.0000 Du        
   8362 ****       -13.5000  -7.2500  24.2500 Du        
   8363 ****       -13.5000  -7.0000  20.7500 Du        
   8364 ****       -13.5000  -7.0000  21.0000 Du        
   8365 ****       -13.5000  -7.0000  21.2500 Du        
   8366 ****       -13.5000  -7.0000  21.5000 Du        
   8367 ****       -13.5000  -7.0000  21.7500 Du        
   8368 ****       -13.5000  -7.0000  22.0000 Du        
   8369 ****       -13.5000  -7.0000  22.2500 Du        
   8370 ****       -13.5000  -7.0000  22.5000 Du        
   8371 ****       -13.5000  -7.0000  22.7500 Du        
   8372 ****       -13.5000  -7.0000  23.0000 Du        
   8373 ****       -13.5000  -7.0000  23.2500 Du        
   8374 ****       -13.5000  -7.0000  23.5000 Du        
   8375 ****       -13.5000  -7.0000  23.7500 Du        
   8376 ****       -13.5000  -7.0000  24.0000 Du        
   8377 ****       -13.5000  -7.0000  24.2500 Du        
   8378 ****       -13.5000  -7.0000  24.5000 Du        
   8379 ****       -13.5000  -6.7500  20.5000 Du        
   8380 ****       -13.5000  -6.7500  20.7500 Du        
   8381 ****       -13.5000  -6.7500  21.0000 Du        
   8382 ****       -13.5000  -6.7500  21.2500 Du        
   8383 ****       -13.5000  -6.7500  21.5000 Du        
   8384 ****       -13.5000  -6.7500  21.7500 Du        
   8385 ****       -13.5000  -6.7500  22.0000 Du        
   8386 ****       -13.5000  -6.7500  22.2500 Du        
   8387 ****       -13.5000  -6.7500  22.5000 Du        
   8388 ****       -13.5000  -6.7500  22.7500 Du        
   8389 ****       -13.5000  -6.7500  23.0000 Du        
   8390 ****       -13.5000  -6.7500  23.2500 Du        
   8391 ****       -13.5000  -6.7500  23.5000 Du        
   8392 ****       -13.5000  -6.7500  23.7500 Du        
   8393 ****       -13.5000  -6.7500  24.0000 Du        
   8394 ****       -13.5000  -6.7500  24.2500 Du        
   8395 ****       -13.5000  -6.5000  20.2500 Du        
   8396 ****       -13.5000  -6.5000  20.5000 Du        
   8397 ****       -13.5000  -6.5000  20.7500 Du        
   8398 ****       -13.5000  -6.5000  21.0000 Du        
   8399 ****       -13.5000  -6.5000  21.2500 Du        
   8400 ****       -13.5000  -6.5000  21.5000 Du        
   8401 ****       -13.5000  -6.5000  21.7500 Du        
   8402 ****       -13.5000  -6.5000  22.0000 Du        
   8403 ****       -13.5000  -6.5000  22.2500 Du        
   8404 ****       -13.5000  -6.5000  22.5000 Du        
   8405 ****       -13.5000  -6.5000  22.7500 Du        
   8406 ****       -13.5000  -6.5000  23.0000 Du        
   8407 ****       -13.5000  -6.5000  23.2500 Du        
   8408 ****       -13.5000  -6.5000  23.5000 Du        
   8409 ****       -13.5000  -6.5000  23.7500 Du        
   8410 ****       -13.5000  -6.2500  20.5000 Du        
   8411 ****       -13.5000  -6.2500  20.7500 Du        
   8412 ****       -13.5000  -6.2500  21.0000 Du        
   8413 ****       -13.5000  -6.2500  21.2500 Du        
   8414 ****       -13.5000  -6.2500  21.5000 Du        
   8415 ****       -13.5000  -6.2500  21.7500 Du        
   8416 ****       -13.5000  -6.2500  22.0000 Du        
   8417 ****       -13.5000  -6.2500  22.2500 Du        
   8418 ****       -13.5000  -6.2500  22.5000 Du        
   8419 ****       -13.5000  -6.2500  22.7500 Du        
   8420 ****       -13.5000  -6.2500  23.0000 Du        
   8421 ****       -13.5000  -6.2500  23.2500 Du        
   8422 ****       -13.5000  -6.2500  23.5000 Du        
   8423 ****       -13.5000  -6.2500  23.7500 Du        
   8424 ****       -13.5000  -6.0000  20.7500 Du        
   8425 ****       -13.5000  -6.0000  21.0000 Du        
   8426 ****       -13.5000  -6.0000  21.2500 Du        
   8427 ****       -13.5000  -6.0000  21.5000 Du        
   8428 ****       -13.5000  -6.0000  21.7500 Du        
   8429 ****       -13.5000  -6.0000  22.0000 Du        
   8430 ****       -13.5000  -6.0000  22.2500 Du        
   8431 ****       -13.5000  -6.0000  22.5000 Du        
   8432 ****       -13.5000  -6.0000  22.7500 Du        
   8433 ****       -13.5000  -6.0000  23.0000 Du        
   8434 ****       -13.5000  -6.0000  23.2500 Du        
   8435 ****       -13.5000  -6.0000  23.5000 Du        
   8436 ****       -13.5000  -5.7500  21.5000 Du        
   8437 ****       -13.5000  -5.7500  21.7500 Du        
   8438 ****       -13.5000  -5.7500  22.0000 Du        
   8439 ****       -13.5000  -5.7500  22.2500 Du        
   8440 ****       -13.5000  -5.7500  22.5000 Du        
   8441 ****       -13.5000  -5.7500  22.7500 Du        
   8442 ****       -13.5000  -5.7500  23.0000 Du        
   8443 ****       -13.5000  -5.7500  23.2500 Du        
   8444 ****       -13.5000  -5.5000  22.0000 Du        
   8445 ****       -13.5000  -5.5000  22.2500 Du        
   8446 ****       -13.5000  -5.5000  22.5000 Du        
   8447 ****       -13.5000  -5.5000  22.7500 Du        
   8448 ****       -13.5000  -5.5000  23.0000 Du        
   8449 ****       -13.5000  -5.5000  23.2500 Du        
   8450 ****       -13.5000  -5.2500  22.2500 Du        
   8451 ****       -13.5000  -5.2500  22.5000 Du        
   8452 ****       -13.5000  -5.2500  22.7500 Du        
   8453 ****       -13.5000  -5.2500  23.0000 Du        
   8454 ****       -13.5000  -5.2500  23.2500 Du        
   8455 ****       -13.5000  -5.0000  22.7500 Du        
   8456 ****       -13.5000  -5.0000  23.0000 Du        
   8457 ****       -13.5000  -5.0000  23.2500 Du        
   8458 ****       -13.5000  -4.7500  23.0000 Du        
   8459 ****       -13.5000  -4.7500  23.2500 Du        
   8460 ****       -13.5000  -4.5000  23.2500 Du        
   8461 ****       -13.5000   0.0000  21.2500 Du        
   8462 ****       -13.5000   0.2500  21.0000 Du        
   8463 ****       -13.5000   0.2500  21.2500 Du        
   8464 ****       -13.5000   0.2500  21.5000 Du        
   8465 ****       -13.5000   0.5000  20.7500 Du        
   8466 ****       -13.5000   0.5000  21.0000 Du        
   8467 ****       -13.5000   0.5000  21.2500 Du        
   8468 ****       -13.5000   0.7500  20.2500 Du        
   8469 ****       -13.5000   0.7500  20.5000 Du        
   8470 ****       -13.5000   0.7500  20.7500 Du        
   8471 ****       -13.5000   0.7500  21.0000 Du        
   8472 ****       -13.5000   0.7500  21.2500 Du        
   8473 ****       -13.5000   1.0000  20.0000 Du        
   8474 ****       -13.5000   1.0000  20.2500 Du        
   8475 ****       -13.5000   1.0000  20.5000 Du        
   8476 ****       -13.5000   1.0000  20.7500 Du        
   8477 ****       -13.5000   1.0000  21.0000 Du        
   8478 ****       -13.5000   1.0000  21.2500 Du        
   8479 ****       -13.5000   1.2500  20.0000 Du        
   8480 ****       -13.5000   1.2500  20.2500 Du        
   8481 ****       -13.5000   1.2500  20.5000 Du        
   8482 ****       -13.5000   1.2500  20.7500 Du        
   8483 ****       -13.5000   1.2500  21.0000 Du        
   8484 ****       -13.5000   1.2500  21.2500 Du        
   8485 ****       -13.5000   1.5000  20.2500 Du        
   8486 ****       -13.5000   1.5000  20.5000 Du        
   8487 ****       -13.5000   1.7500  20.2500 Du        
   8488 ****       -13.5000   4.0000  15.7500 Du        
   8489 ****       -13.5000   4.0000  16.0000 Du        
   8490 ****       -13.5000   4.0000  16.2500 Du        
   8491 ****       -13.5000   4.0000  16.5000 Du        
   8492 ****       -13.5000   4.0000  16.7500 Du        
   8493 ****       -13.5000   4.0000  17.0000 Du        
   8494 ****       -13.5000   4.0000  17.2500 Du        
   8495 ****       -13.5000   4.2500  15.5000 Du        
   8496 ****       -13.5000   4.2500  15.7500 Du        
   8497 ****       -13.5000   4.2500  16.0000 Du        
   8498 ****       -13.5000   4.2500  16.2500 Du        
   8499 ****       -13.5000   4.2500  16.5000 Du        
   8500 ****       -13.5000   4.2500  16.7500 Du        
   8501 ****       -13.5000   4.2500  17.0000 Du        
   8502 ****       -13.5000   4.2500  17.2500 Du        
   8503 ****       -13.5000   4.2500  17.5000 Du        
   8504 ****       -13.5000   4.2500  17.7500 Du        
   8505 ****       -13.5000   4.5000  15.2500 Du        
   8506 ****       -13.5000   4.5000  15.5000 Du        
   8507 ****       -13.5000   4.5000  15.7500 Du        
   8508 ****       -13.5000   4.5000  16.0000 Du        
   8509 ****       -13.5000   4.5000  16.2500 Du        
   8510 ****       -13.5000   4.5000  16.5000 Du        
   8511 ****       -13.5000   4.5000  16.7500 Du        
   8512 ****       -13.5000   4.5000  17.0000 Du        
   8513 ****       -13.5000   4.5000  17.2500 Du        
   8514 ****       -13.5000   4.5000  17.5000 Du        
   8515 ****       -13.5000   4.7500  15.0000 Du        
   8516 ****       -13.5000   4.7500  15.2500 Du        
   8517 ****       -13.5000   4.7500  15.5000 Du        
   8518 ****       -13.5000   4.7500  15.7500 Du        
   8519 ****       -13.5000   4.7500  16.0000 Du        
   8520 ****       -13.5000   4.7500  16.2500 Du        
   8521 ****       -13.5000   4.7500  16.5000 Du        
   8522 ****       -13.5000   4.7500  16.7500 Du        
   8523 ****       -13.5000   4.7500  17.0000 Du        
   8524 ****       -13.5000   4.7500  17.2500 Du        
   8525 ****       -13.5000   4.7500  17.5000 Du        
   8526 ****       -13.5000   4.7500  17.7500 Du        
   8527 ****       -13.5000   5.0000  14.7500 Du        
   8528 ****       -13.5000   5.0000  15.0000 Du        
   8529 ****       -13.5000   5.0000  15.2500 Du        
   8530 ****       -13.5000   5.0000  15.5000 Du        
   8531 ****       -13.5000   5.0000  15.7500 Du        
   8532 ****       -13.5000   5.0000  16.0000 Du        
   8533 ****       -13.5000   5.0000  16.2500 Du        
   8534 ****       -13.5000   5.0000  16.5000 Du        
   8535 ****       -13.5000   5.0000  16.7500 Du        
   8536 ****       -13.5000   5.0000  17.0000 Du        
   8537 ****       -13.5000   5.0000  17.2500 Du        
   8538 ****       -13.5000   5.0000  17.5000 Du        
   8539 ****       -13.5000   5.0000  17.7500 Du        
   8540 ****       -13.5000   5.0000  18.0000 Du        
   8541 ****       -13.5000   5.2500  14.2500 Du        
   8542 ****       -13.5000   5.2500  14.5000 Du        
   8543 ****       -13.5000   5.2500  14.7500 Du        
   8544 ****       -13.5000   5.2500  15.0000 Du        
   8545 ****       -13.5000   5.2500  15.2500 Du        
   8546 ****       -13.5000   5.2500  15.5000 Du        
   8547 ****       -13.5000   5.2500  15.7500 Du        
   8548 ****       -13.5000   5.2500  16.0000 Du        
   8549 ****       -13.5000   5.2500  16.2500 Du        
   8550 ****       -13.5000   5.2500  16.5000 Du        
   8551 ****       -13.5000   5.2500  16.7500 Du        
   8552 ****       -13.5000   5.2500  17.0000 Du        
   8553 ****       -13.5000   5.2500  17.2500 Du        
   8554 ****       -13.5000   5.2500  17.5000 Du        
   8555 ****       -13.5000   5.2500  17.7500 Du        
   8556 ****       -13.5000   5.2500  18.0000 Du        
   8557 ****       -13.5000   5.5000  14.0000 Du        
   8558 ****       -13.5000   5.5000  14.2500 Du        
   8559 ****       -13.5000   5.5000  14.5000 Du        
   8560 ****       -13.5000   5.5000  14.7500 Du        
   8561 ****       -13.5000   5.5000  15.0000 Du        
   8562 ****       -13.5000   5.5000  15.2500 Du        
   8563 ****       -13.5000   5.5000  15.5000 Du        
   8564 ****       -13.5000   5.5000  15.7500 Du        
   8565 ****       -13.5000   5.5000  16.0000 Du        
   8566 ****       -13.5000   5.5000  16.2500 Du        
   8567 ****       -13.5000   5.5000  16.5000 Du        
   8568 ****       -13.5000   5.5000  16.7500 Du        
   8569 ****       -13.5000   5.5000  17.0000 Du        
   8570 ****       -13.5000   5.5000  17.2500 Du        
   8571 ****       -13.5000   5.7500  13.2500 Du        
   8572 ****       -13.5000   5.7500  13.5000 Du        
   8573 ****       -13.5000   5.7500  13.7500 Du        
   8574 ****       -13.5000   5.7500  14.0000 Du        
   8575 ****       -13.5000   5.7500  14.2500 Du        
   8576 ****       -13.5000   5.7500  14.5000 Du        
   8577 ****       -13.5000   5.7500  14.7500 Du        
   8578 ****       -13.5000   5.7500  15.0000 Du        
   8579 ****       -13.5000   5.7500  15.2500 Du        
   8580 ****       -13.5000   5.7500  15.5000 Du        
   8581 ****       -13.5000   5.7500  15.7500 Du        
   8582 ****       -13.5000   5.7500  16.0000 Du        
   8583 ****       -13.5000   5.7500  16.2500 Du        
   8584 ****       -13.5000   5.7500  16.5000 Du        
   8585 ****       -13.5000   5.7500  16.7500 Du        
   8586 ****       -13.5000   5.7500  17.0000 Du        
   8587 ****       -13.5000   5.7500  17.2500 Du        
   8588 ****       -13.5000   6.0000  12.2500 Du        
   8589 ****       -13.5000   6.0000  12.5000 Du        
   8590 ****       -13.5000   6.0000  12.7500 Du        
   8591 ****       -13.5000   6.0000  13.0000 Du        
   8592 ****       -13.5000   6.0000  13.2500 Du        
   8593 ****       -13.5000   6.0000  13.5000 Du        
   8594 ****       -13.5000   6.0000  13.7500 Du        
   8595 ****       -13.5000   6.0000  14.0000 Du        
   8596 ****       -13.5000   6.0000  14.2500 Du        
   8597 ****       -13.5000   6.0000  14.5000 Du        
   8598 ****       -13.5000   6.0000  14.7500 Du        
   8599 ****       -13.5000   6.0000  15.0000 Du        
   8600 ****       -13.5000   6.0000  15.2500 Du        
   8601 ****       -13.5000   6.0000  15.5000 Du        
   8602 ****       -13.5000   6.0000  15.7500 Du        
   8603 ****       -13.5000   6.0000  16.0000 Du        
   8604 ****       -13.5000   6.0000  16.2500 Du        
   8605 ****       -13.5000   6.0000  16.5000 Du        
   8606 ****       -13.5000   6.0000  16.7500 Du        
   8607 ****       -13.5000   6.0000  17.0000 Du        
   8608 ****       -13.5000   6.0000  17.2500 Du        
   8609 ****       -13.5000   6.2500  12.0000 Du        
   8610 ****       -13.5000   6.2500  12.2500 Du        
   8611 ****       -13.5000   6.2500  12.5000 Du        
   8612 ****       -13.5000   6.2500  12.7500 Du        
   8613 ****       -13.5000   6.2500  13.0000 Du        
   8614 ****       -13.5000   6.2500  13.2500 Du        
   8615 ****       -13.5000   6.2500  13.5000 Du        
   8616 ****       -13.5000   6.2500  13.7500 Du        
   8617 ****       -13.5000   6.2500  14.0000 Du        
   8618 ****       -13.5000   6.2500  14.2500 Du        
   8619 ****       -13.5000   6.2500  14.5000 Du        
   8620 ****       -13.5000   6.2500  14.7500 Du        
   8621 ****       -13.5000   6.2500  15.0000 Du        
   8622 ****       -13.5000   6.2500  15.2500 Du        
   8623 ****       -13.5000   6.2500  15.5000 Du        
   8624 ****       -13.5000   6.2500  15.7500 Du        
   8625 ****       -13.5000   6.2500  16.0000 Du        
   8626 ****       -13.5000   6.2500  16.2500 Du        
   8627 ****       -13.5000   6.2500  16.5000 Du        
   8628 ****       -13.5000   6.2500  16.7500 Du        
   8629 ****       -13.5000   6.5000  12.2500 Du        
   8630 ****       -13.5000   6.5000  12.5000 Du        
   8631 ****       -13.5000   6.5000  12.7500 Du        
   8632 ****       -13.5000   6.5000  13.0000 Du        
   8633 ****       -13.5000   6.5000  13.2500 Du        
   8634 ****       -13.5000   6.5000  13.5000 Du        
   8635 ****       -13.5000   6.5000  13.7500 Du        
   8636 ****       -13.5000   6.5000  14.0000 Du        
   8637 ****       -13.5000   6.5000  14.2500 Du        
   8638 ****       -13.5000   6.5000  14.5000 Du        
   8639 ****       -13.5000   6.5000  14.7500 Du        
   8640 ****       -13.5000   6.5000  15.0000 Du        
   8641 ****       -13.5000   6.5000  15.2500 Du        
   8642 ****       -13.5000   6.5000  15.5000 Du        
   8643 ****       -13.5000   6.7500  12.2500 Du        
   8644 ****       -13.5000   6.7500  12.5000 Du        
   8645 ****       -13.5000   6.7500  12.7500 Du        
   8646 ****       -13.5000   6.7500  13.0000 Du        
   8647 ****       -13.5000   6.7500  13.2500 Du        
   8648 ****       -13.5000   6.7500  13.5000 Du        
   8649 ****       -13.5000   6.7500  13.7500 Du        
   8650 ****       -13.5000   6.7500  14.0000 Du        
   8651 ****       -13.5000   6.7500  14.2500 Du        
   8652 ****       -13.5000   6.7500  14.5000 Du        
   8653 ****       -13.5000   6.7500  14.7500 Du        
   8654 ****       -13.5000   6.7500  15.0000 Du        
   8655 ****       -13.5000   6.7500  15.2500 Du        
   8656 ****       -13.5000   7.0000  12.2500 Du        
   8657 ****       -13.5000   7.0000  12.5000 Du        
   8658 ****       -13.5000   7.0000  12.7500 Du        
   8659 ****       -13.5000   7.0000  13.0000 Du        
   8660 ****       -13.5000   7.0000  13.2500 Du        
   8661 ****       -13.5000   7.0000  13.5000 Du        
   8662 ****       -13.5000   7.0000  13.7500 Du        
   8663 ****       -13.5000   7.0000  14.0000 Du        
   8664 ****       -13.5000   7.0000  14.2500 Du        
   8665 ****       -13.5000   7.0000  14.5000 Du        
   8666 ****       -13.5000   7.0000  14.7500 Du        
   8667 ****       -13.5000   7.0000  15.0000 Du        
   8668 ****       -13.5000   7.0000  15.2500 Du        
   8669 ****       -13.5000   7.2500  12.5000 Du        
   8670 ****       -13.5000   7.2500  12.7500 Du        
   8671 ****       -13.5000   7.2500  13.0000 Du        
   8672 ****       -13.5000   7.2500  13.2500 Du        
   8673 ****       -13.5000   7.2500  13.5000 Du        
   8674 ****       -13.5000   7.2500  13.7500 Du        
   8675 ****       -13.5000   7.2500  14.0000 Du        
   8676 ****       -13.5000   7.2500  14.2500 Du        
   8677 ****       -13.5000   7.2500  14.5000 Du        
   8678 ****       -13.5000   7.2500  14.7500 Du        
   8679 ****       -13.5000   7.2500  15.0000 Du        
   8680 ****       -13.5000   7.5000  13.2500 Du        
   8681 ****       -13.5000   7.5000  14.0000 Du        
   8682 ****       -13.5000   7.5000  14.2500 Du        
   8683 ****       -13.5000   7.7500  13.2500 Du        
   8684 ****       -13.5000   7.7500  13.7500 Du        
   8685 ****       -13.5000   7.7500  14.0000 Du        
   8686 ****       -13.5000   7.7500  14.2500 Du        
   8687 ****       -13.5000  11.5000  24.0000 Du        
   8688 ****       -13.5000  11.5000  24.2500 Du        
   8689 ****       -13.5000  11.7500  23.7500 Du        
   8690 ****       -13.5000  11.7500  24.0000 Du        
   8691 ****       -13.5000  11.7500  24.2500 Du        
   8692 ****       -13.5000  11.7500  24.5000 Du        
   8693 ****       -13.5000  11.7500  24.7500 Du        
   8694 ****       -13.5000  12.0000  12.7500 Du        
   8695 ****       -13.5000  12.0000  23.7500 Du        
   8696 ****       -13.5000  12.0000  24.0000 Du        
   8697 ****       -13.5000  12.0000  24.2500 Du        
   8698 ****       -13.5000  12.0000  24.5000 Du        
   8699 ****       -13.5000  12.0000  24.7500 Du        
   8700 ****       -13.5000  12.0000  25.0000 Du        
   8701 ****       -13.5000  12.0000  25.2500 Du        
   8702 ****       -13.5000  12.2500  12.5000 Du        
   8703 ****       -13.5000  12.2500  12.7500 Du        
   8704 ****       -13.5000  12.2500  13.0000 Du        
   8705 ****       -13.5000  12.2500  13.2500 Du        
   8706 ****       -13.5000  12.2500  23.7500 Du        
   8707 ****       -13.5000  12.2500  24.0000 Du        
   8708 ****       -13.5000  12.2500  24.2500 Du        
   8709 ****       -13.5000  12.2500  24.5000 Du        
   8710 ****       -13.5000  12.2500  24.7500 Du        
   8711 ****       -13.5000  12.2500  25.0000 Du        
   8712 ****       -13.5000  12.2500  25.2500 Du        
   8713 ****       -13.5000  12.2500  25.5000 Du        
   8714 ****       -13.5000  12.5000  12.5000 Du        
   8715 ****       -13.5000  12.5000  12.7500 Du        
   8716 ****       -13.5000  12.5000  13.0000 Du        
   8717 ****       -13.5000  12.5000  13.2500 Du        
   8718 ****       -13.5000  12.5000  23.5000 Du        
   8719 ****       -13.5000  12.5000  23.7500 Du        
   8720 ****       -13.5000  12.5000  24.0000 Du        
   8721 ****       -13.5000  12.5000  24.2500 Du        
   8722 ****       -13.5000  12.5000  24.5000 Du        
   8723 ****       -13.5000  12.5000  24.7500 Du        
   8724 ****       -13.5000  12.5000  25.0000 Du        
   8725 ****       -13.5000  12.5000  25.2500 Du        
   8726 ****       -13.5000  12.5000  25.5000 Du        
   8727 ****       -13.5000  12.5000  25.7500 Du        
   8728 ****       -13.5000  12.5000  26.0000 Du        
   8729 ****       -13.5000  12.5000  26.2500 Du        
   8730 ****       -13.5000  12.5000  26.5000 Du        
   8731 ****       -13.5000  12.5000  26.7500 Du        
   8732 ****       -13.5000  12.5000  27.0000 Du        
   8733 ****       -13.5000  12.5000  27.2500 Du        
   8734 ****       -13.5000  12.5000  27.7500 Du        
   8735 ****       -13.5000  12.7500  12.2500 Du        
   8736 ****       -13.5000  12.7500  12.5000 Du        
   8737 ****       -13.5000  12.7500  12.7500 Du        
   8738 ****       -13.5000  12.7500  13.0000 Du        
   8739 ****       -13.5000  12.7500  13.2500 Du        
   8740 ****       -13.5000  12.7500  13.5000 Du        
   8741 ****       -13.5000  12.7500  23.7500 Du        
   8742 ****       -13.5000  12.7500  24.0000 Du        
   8743 ****       -13.5000  12.7500  24.2500 Du        
   8744 ****       -13.5000  12.7500  24.5000 Du        
   8745 ****       -13.5000  12.7500  24.7500 Du        
   8746 ****       -13.5000  12.7500  25.0000 Du        
   8747 ****       -13.5000  12.7500  25.2500 Du        
   8748 ****       -13.5000  12.7500  28.0000 Du        
   8749 ****       -13.5000  12.7500  28.2500 Du        
   8750 ****       -13.5000  13.0000  12.2500 Du        
   8751 ****       -13.5000  13.0000  12.5000 Du        
   8752 ****       -13.5000  13.0000  12.7500 Du        
   8753 ****       -13.5000  13.0000  13.0000 Du        
   8754 ****       -13.5000  13.0000  13.2500 Du        
   8755 ****       -13.5000  13.0000  13.5000 Du        
   8756 ****       -13.5000  13.0000  23.7500 Du        
   8757 ****       -13.5000  13.0000  24.0000 Du        
   8758 ****       -13.5000  13.0000  24.2500 Du        
   8759 ****       -13.5000  13.0000  24.5000 Du        
   8760 ****       -13.5000  13.0000  24.7500 Du        
   8761 ****       -13.5000  13.2500  12.5000 Du        
   8762 ****       -13.5000  13.2500  12.7500 Du        
   8763 ****       -13.5000  13.2500  13.0000 Du        
   8764 ****       -13.5000  13.2500  13.2500 Du        
   8765 ****       -13.5000  13.2500  24.0000 Du        
   8766 ****       -13.5000  13.2500  24.2500 Du        
   8767 ****       -13.2500  -7.7500  24.0000 Du        
   8768 ****       -13.2500  -7.5000  23.2500 Du        
   8769 ****       -13.2500  -7.5000  23.5000 Du        
   8770 ****       -13.2500  -7.5000  23.7500 Du        
   8771 ****       -13.2500  -7.5000  24.0000 Du        
   8772 ****       -13.2500  -7.5000  24.2500 Du        
   8773 ****       -13.2500  -7.2500  23.0000 Du        
   8774 ****       -13.2500  -7.2500  23.2500 Du        
   8775 ****       -13.2500  -7.2500  23.5000 Du        
   8776 ****       -13.2500  -7.2500  23.7500 Du        
   8777 ****       -13.2500  -7.2500  24.0000 Du        
   8778 ****       -13.2500  -7.2500  24.2500 Du        
   8779 ****       -13.2500  -7.2500  24.5000 Du        
   8780 ****       -13.2500  -7.2500  24.7500 Du        
   8781 ****       -13.2500  -7.0000  22.7500 Du        
   8782 ****       -13.2500  -7.0000  23.0000 Du        
   8783 ****       -13.2500  -7.0000  23.2500 Du        
   8784 ****       -13.2500  -7.0000  23.5000 Du        
   8785 ****       -13.2500  -7.0000  23.7500 Du        
   8786 ****       -13.2500  -7.0000  24.0000 Du        
   8787 ****       -13.2500  -7.0000  24.2500 Du        
   8788 ****       -13.2500  -7.0000  24.7500 Du        
   8789 ****       -13.2500  -6.7500  20.7500 Du        
   8790 ****       -13.2500  -6.7500  21.0000 Du        
   8791 ****       -13.2500  -6.7500  21.2500 Du        
   8792 ****       -13.2500  -6.7500  21.5000 Du        
   8793 ****       -13.2500  -6.7500  21.7500 Du        
   8794 ****       -13.2500  -6.7500  22.0000 Du        
   8795 ****       -13.2500  -6.7500  22.2500 Du        
   8796 ****       -13.2500  -6.7500  22.5000 Du        
   8797 ****       -13.2500  -6.7500  22.7500 Du        
   8798 ****       -13.2500  -6.7500  23.0000 Du        
   8799 ****       -13.2500  -6.7500  23.2500 Du        
   8800 ****       -13.2500  -6.7500  23.5000 Du        
   8801 ****       -13.2500  -6.7500  23.7500 Du        
   8802 ****       -13.2500  -6.7500  24.0000 Du        
   8803 ****       -13.2500  -6.7500  24.2500 Du        
   8804 ****       -13.2500  -6.5000  20.2500 Du        
   8805 ****       -13.2500  -6.5000  20.5000 Du        
   8806 ****       -13.2500  -6.5000  20.7500 Du        
   8807 ****       -13.2500  -6.5000  21.0000 Du        
   8808 ****       -13.2500  -6.5000  21.2500 Du        
   8809 ****       -13.2500  -6.5000  21.5000 Du        
   8810 ****       -13.2500  -6.5000  21.7500 Du        
   8811 ****       -13.2500  -6.5000  22.0000 Du        
   8812 ****       -13.2500  -6.5000  22.2500 Du        
   8813 ****       -13.2500  -6.5000  22.5000 Du        
   8814 ****       -13.2500  -6.5000  22.7500 Du        
   8815 ****       -13.2500  -6.5000  23.0000 Du        
   8816 ****       -13.2500  -6.5000  23.2500 Du        
   8817 ****       -13.2500  -6.5000  23.5000 Du        
   8818 ****       -13.2500  -6.5000  23.7500 Du        
   8819 ****       -13.2500  -6.2500  20.5000 Du        
   8820 ****       -13.2500  -6.2500  20.7500 Du        
   8821 ****       -13.2500  -6.2500  21.0000 Du        
   8822 ****       -13.2500  -6.2500  21.2500 Du        
   8823 ****       -13.2500  -6.2500  21.5000 Du        
   8824 ****       -13.2500  -6.2500  21.7500 Du        
   8825 ****       -13.2500  -6.2500  22.0000 Du        
   8826 ****       -13.2500  -6.2500  22.2500 Du        
   8827 ****       -13.2500  -6.2500  22.5000 Du        
   8828 ****       -13.2500  -6.2500  22.7500 Du        
   8829 ****       -13.2500  -6.2500  23.0000 Du        
   8830 ****       -13.2500  -6.2500  23.2500 Du        
   8831 ****       -13.2500  -6.2500  23.5000 Du        
   8832 ****       -13.2500  -6.2500  23.7500 Du        
   8833 ****       -13.2500  -6.0000  21.0000 Du        
   8834 ****       -13.2500  -6.0000  21.2500 Du        
   8835 ****       -13.2500  -6.0000  21.5000 Du        
   8836 ****       -13.2500  -6.0000  21.7500 Du        
   8837 ****       -13.2500  -6.0000  22.0000 Du        
   8838 ****       -13.2500  -6.0000  22.2500 Du        
   8839 ****       -13.2500  -6.0000  22.5000 Du        
   8840 ****       -13.2500  -6.0000  22.7500 Du        
   8841 ****       -13.2500  -6.0000  23.0000 Du        
   8842 ****       -13.2500  -6.0000  23.2500 Du        
   8843 ****       -13.2500  -6.0000  23.5000 Du        
   8844 ****       -13.2500  -5.7500  21.7500 Du        
   8845 ****       -13.2500  -5.7500  22.0000 Du        
   8846 ****       -13.2500  -5.7500  22.2500 Du        
   8847 ****       -13.2500  -5.7500  22.5000 Du        
   8848 ****       -13.2500  -5.7500  22.7500 Du        
   8849 ****       -13.2500  -5.7500  23.0000 Du        
   8850 ****       -13.2500  -5.7500  23.2500 Du        
   8851 ****       -13.2500  -5.5000  22.2500 Du        
   8852 ****       -13.2500  -5.5000  22.5000 Du        
   8853 ****       -13.2500  -5.5000  22.7500 Du        
   8854 ****       -13.2500  -5.5000  23.0000 Du        
   8855 ****       -13.2500  -5.5000  23.2500 Du        
   8856 ****       -13.2500  -5.2500  22.5000 Du        
   8857 ****       -13.2500  -5.2500  22.7500 Du        
   8858 ****       -13.2500  -5.2500  23.0000 Du        
   8859 ****       -13.2500  -5.2500  23.2500 Du        
   8860 ****       -13.2500  -5.0000  22.7500 Du        
   8861 ****       -13.2500  -5.0000  23.0000 Du        
   8862 ****       -13.2500  -5.0000  23.2500 Du        
   8863 ****       -13.2500  -4.7500  23.0000 Du        
   8864 ****       -13.2500  -4.7500  23.2500 Du        
   8865 ****       -13.2500  -4.5000  23.2500 Du        
   8866 ****       -13.2500   0.2500  21.2500 Du        
   8867 ****       -13.2500   0.5000  20.7500 Du        
   8868 ****       -13.2500   0.5000  21.0000 Du        
   8869 ****       -13.2500   0.5000  21.2500 Du        
   8870 ****       -13.2500   0.7500  20.0000 Du        
   8871 ****       -13.2500   0.7500  20.2500 Du        
   8872 ****       -13.2500   0.7500  20.5000 Du        
   8873 ****       -13.2500   0.7500  20.7500 Du        
   8874 ****       -13.2500   0.7500  21.0000 Du        
   8875 ****       -13.2500   0.7500  21.2500 Du        
   8876 ****       -13.2500   1.0000  20.0000 Du        
   8877 ****       -13.2500   1.0000  20.2500 Du        
   8878 ****       -13.2500   1.0000  20.5000 Du        
   8879 ****       -13.2500   1.0000  20.7500 Du        
   8880 ****       -13.2500   1.0000  21.0000 Du        
   8881 ****       -13.2500   1.0000  21.2500 Du        
   8882 ****       -13.2500   1.2500  19.7500 Du        
   8883 ****       -13.2500   1.2500  20.0000 Du        
   8884 ****       -13.2500   1.2500  20.2500 Du        
   8885 ****       -13.2500   1.2500  20.5000 Du        
   8886 ****       -13.2500   1.2500  20.7500 Du        
   8887 ****       -13.2500   1.2500  21.0000 Du        
   8888 ****       -13.2500   1.2500  21.2500 Du        
   8889 ****       -13.2500   1.5000  20.0000 Du        
   8890 ****       -13.2500   1.5000  20.2500 Du        
   8891 ****       -13.2500   1.5000  20.5000 Du        
   8892 ****       -13.2500   1.5000  20.7500 Du        
   8893 ****       -13.2500   1.7500  20.0000 Du        
   8894 ****       -13.2500   1.7500  20.2500 Du        
   8895 ****       -13.2500   1.7500  20.5000 Du        
   8896 ****       -13.2500   2.0000  20.0000 Du        
   8897 ****       -13.2500   2.0000  20.2500 Du        
   8898 ****       -13.2500   2.2500  19.7500 Du        
   8899 ****       -13.2500   2.2500  20.0000 Du        
   8900 ****       -13.2500   2.2500  20.2500 Du        
   8901 ****       -13.2500   3.7500  16.0000 Du        
   8902 ****       -13.2500   3.7500  16.2500 Du        
   8903 ****       -13.2500   3.7500  16.5000 Du        
   8904 ****       -13.2500   3.7500  16.7500 Du        
   8905 ****       -13.2500   3.7500  17.0000 Du        
   8906 ****       -13.2500   3.7500  17.2500 Du        
   8907 ****       -13.2500   3.7500  17.5000 Du        
   8908 ****       -13.2500   3.7500  17.7500 Du        
   8909 ****       -13.2500   3.7500  18.0000 Du        
   8910 ****       -13.2500   3.7500  18.2500 Du        
   8911 ****       -13.2500   4.0000  15.7500 Du        
   8912 ****       -13.2500   4.0000  16.0000 Du        
   8913 ****       -13.2500   4.0000  16.2500 Du        
   8914 ****       -13.2500   4.0000  16.5000 Du        
   8915 ****       -13.2500   4.0000  16.7500 Du        
   8916 ****       -13.2500   4.0000  17.0000 Du        
   8917 ****       -13.2500   4.0000  17.2500 Du        
   8918 ****       -13.2500   4.0000  17.5000 Du        
   8919 ****       -13.2500   4.0000  17.7500 Du        
   8920 ****       -13.2500   4.0000  18.0000 Du        
   8921 ****       -13.2500   4.0000  18.2500 Du        
   8922 ****       -13.2500   4.2500  15.7500 Du        
   8923 ****       -13.2500   4.2500  16.0000 Du        
   8924 ****       -13.2500   4.2500  16.2500 Du        
   8925 ****       -13.2500   4.2500  16.5000 Du        
   8926 ****       -13.2500   4.2500  16.7500 Du        
   8927 ****       -13.2500   4.2500  17.0000 Du        
   8928 ****       -13.2500   4.2500  17.2500 Du        
   8929 ****       -13.2500   4.2500  17.5000 Du        
   8930 ****       -13.2500   4.2500  17.7500 Du        
   8931 ****       -13.2500   4.2500  18.0000 Du        
   8932 ****       -13.2500   4.5000  15.5000 Du        
   8933 ****       -13.2500   4.5000  15.7500 Du        
   8934 ****       -13.2500   4.5000  16.0000 Du        
   8935 ****       -13.2500   4.5000  16.2500 Du        
   8936 ****       -13.2500   4.5000  16.5000 Du        
   8937 ****       -13.2500   4.5000  16.7500 Du        
   8938 ****       -13.2500   4.5000  17.0000 Du        
   8939 ****       -13.2500   4.5000  17.2500 Du        
   8940 ****       -13.2500   4.5000  17.5000 Du        
   8941 ****       -13.2500   4.5000  17.7500 Du        
   8942 ****       -13.2500   4.7500  15.2500 Du        
   8943 ****       -13.2500   4.7500  15.5000 Du        
   8944 ****       -13.2500   4.7500  15.7500 Du        
   8945 ****       -13.2500   4.7500  16.0000 Du        
   8946 ****       -13.2500   4.7500  16.2500 Du        
   8947 ****       -13.2500   4.7500  16.5000 Du        
   8948 ****       -13.2500   4.7500  16.7500 Du        
   8949 ****       -13.2500   4.7500  17.0000 Du        
   8950 ****       -13.2500   4.7500  17.2500 Du        
   8951 ****       -13.2500   4.7500  17.5000 Du        
   8952 ****       -13.2500   4.7500  17.7500 Du        
   8953 ****       -13.2500   4.7500  18.0000 Du        
   8954 ****       -13.2500   5.0000  15.0000 Du        
   8955 ****       -13.2500   5.0000  15.2500 Du        
   8956 ****       -13.2500   5.0000  15.5000 Du        
   8957 ****       -13.2500   5.0000  15.7500 Du        
   8958 ****       -13.2500   5.0000  16.0000 Du        
   8959 ****       -13.2500   5.0000  16.2500 Du        
   8960 ****       -13.2500   5.0000  16.5000 Du        
   8961 ****       -13.2500   5.0000  16.7500 Du        
   8962 ****       -13.2500   5.0000  17.0000 Du        
   8963 ****       -13.2500   5.0000  17.2500 Du        
   8964 ****       -13.2500   5.0000  17.5000 Du        
   8965 ****       -13.2500   5.0000  17.7500 Du        
   8966 ****       -13.2500   5.0000  18.0000 Du        
   8967 ****       -13.2500   5.2500  14.5000 Du        
   8968 ****       -13.2500   5.2500  14.7500 Du        
   8969 ****       -13.2500   5.2500  15.0000 Du        
   8970 ****       -13.2500   5.2500  15.2500 Du        
   8971 ****       -13.2500   5.2500  15.5000 Du        
   8972 ****       -13.2500   5.2500  15.7500 Du        
   8973 ****       -13.2500   5.2500  16.0000 Du        
   8974 ****       -13.2500   5.2500  16.2500 Du        
   8975 ****       -13.2500   5.2500  16.5000 Du        
   8976 ****       -13.2500   5.2500  16.7500 Du        
   8977 ****       -13.2500   5.2500  17.0000 Du        
   8978 ****       -13.2500   5.2500  17.2500 Du        
   8979 ****       -13.2500   5.2500  17.5000 Du        
   8980 ****       -13.2500   5.2500  17.7500 Du        
   8981 ****       -13.2500   5.2500  18.0000 Du        
   8982 ****       -13.2500   5.5000  14.2500 Du        
   8983 ****       -13.2500   5.5000  14.5000 Du        
   8984 ****       -13.2500   5.5000  14.7500 Du        
   8985 ****       -13.2500   5.5000  15.0000 Du        
   8986 ****       -13.2500   5.5000  15.2500 Du        
   8987 ****       -13.2500   5.5000  15.5000 Du        
   8988 ****       -13.2500   5.5000  15.7500 Du        
   8989 ****       -13.2500   5.5000  16.0000 Du        
   8990 ****       -13.2500   5.5000  16.2500 Du        
   8991 ****       -13.2500   5.5000  16.5000 Du        
   8992 ****       -13.2500   5.5000  16.7500 Du        
   8993 ****       -13.2500   5.5000  17.0000 Du        
   8994 ****       -13.2500   5.5000  17.2500 Du        
   8995 ****       -13.2500   5.7500   9.0000 Du        
   8996 ****       -13.2500   5.7500  14.0000 Du        
   8997 ****       -13.2500   5.7500  14.2500 Du        
   8998 ****       -13.2500   5.7500  14.5000 Du        
   8999 ****       -13.2500   5.7500  14.7500 Du        
   9000 ****       -13.2500   5.7500  15.0000 Du        
   9001 ****       -13.2500   5.7500  15.2500 Du        
   9002 ****       -13.2500   5.7500  15.5000 Du        
   9003 ****       -13.2500   5.7500  15.7500 Du        
   9004 ****       -13.2500   5.7500  16.0000 Du        
   9005 ****       -13.2500   5.7500  16.2500 Du        
   9006 ****       -13.2500   5.7500  16.5000 Du        
   9007 ****       -13.2500   5.7500  16.7500 Du        
   9008 ****       -13.2500   5.7500  17.0000 Du        
   9009 ****       -13.2500   5.7500  17.2500 Du        
   9010 ****       -13.2500   5.7500  17.5000 Du        
   9011 ****       -13.2500   5.7500  17.7500 Du        
   9012 ****       -13.2500   5.7500  18.0000 Du        
   9013 ****       -13.2500   6.0000   9.0000 Du        
   9014 ****       -13.2500   6.0000   9.2500 Du        
   9015 ****       -13.2500   6.0000   9.5000 Du        
   9016 ****       -13.2500   6.0000  13.0000 Du        
   9017 ****       -13.2500   6.0000  13.2500 Du        
   9018 ****       -13.2500   6.0000  13.5000 Du        
   9019 ****       -13.2500   6.0000  13.7500 Du        
   9020 ****       -13.2500   6.0000  14.0000 Du        
   9021 ****       -13.2500   6.0000  14.2500 Du        
   9022 ****       -13.2500   6.0000  14.5000 Du        
   9023 ****       -13.2500   6.0000  14.7500 Du        
   9024 ****       -13.2500   6.0000  15.0000 Du        
   9025 ****       -13.2500   6.0000  15.2500 Du        
   9026 ****       -13.2500   6.0000  15.5000 Du        
   9027 ****       -13.2500   6.0000  15.7500 Du        
   9028 ****       -13.2500   6.0000  16.0000 Du        
   9029 ****       -13.2500   6.0000  16.2500 Du        
   9030 ****       -13.2500   6.0000  16.5000 Du        
   9031 ****       -13.2500   6.0000  16.7500 Du        
   9032 ****       -13.2500   6.0000  17.0000 Du        
   9033 ****       -13.2500   6.0000  17.2500 Du        
   9034 ****       -13.2500   6.0000  17.5000 Du        
   9035 ****       -13.2500   6.0000  17.7500 Du        
   9036 ****       -13.2500   6.0000  18.0000 Du        
   9037 ****       -13.2500   6.2500   9.0000 Du        
   9038 ****       -13.2500   6.2500   9.2500 Du        
   9039 ****       -13.2500   6.2500   9.5000 Du        
   9040 ****       -13.2500   6.2500   9.7500 Du        
   9041 ****       -13.2500   6.2500  10.0000 Du        
   9042 ****       -13.2500   6.2500  10.2500 Du        
   9043 ****       -13.2500   6.2500  10.5000 Du        
   9044 ****       -13.2500   6.2500  10.7500 Du        
   9045 ****       -13.2500   6.2500  11.0000 Du        
   9046 ****       -13.2500   6.2500  11.2500 Du        
   9047 ****       -13.2500   6.2500  11.5000 Du        
   9048 ****       -13.2500   6.2500  11.7500 Du        
   9049 ****       -13.2500   6.2500  12.0000 Du        
   9050 ****       -13.2500   6.2500  12.2500 Du        
   9051 ****       -13.2500   6.2500  12.5000 Du        
   9052 ****       -13.2500   6.2500  12.7500 Du        
   9053 ****       -13.2500   6.2500  13.0000 Du        
   9054 ****       -13.2500   6.2500  13.2500 Du        
   9055 ****       -13.2500   6.2500  13.5000 Du        
   9056 ****       -13.2500   6.2500  13.7500 Du        
   9057 ****       -13.2500   6.2500  14.0000 Du        
   9058 ****       -13.2500   6.2500  14.2500 Du        
   9059 ****       -13.2500   6.2500  14.5000 Du        
   9060 ****       -13.2500   6.2500  14.7500 Du        
   9061 ****       -13.2500   6.2500  15.0000 Du        
   9062 ****       -13.2500   6.2500  15.2500 Du        
   9063 ****       -13.2500   6.2500  15.5000 Du        
   9064 ****       -13.2500   6.2500  15.7500 Du        
   9065 ****       -13.2500   6.2500  16.0000 Du        
   9066 ****       -13.2500   6.2500  16.2500 Du        
   9067 ****       -13.2500   6.2500  16.5000 Du        
   9068 ****       -13.2500   6.2500  16.7500 Du        
   9069 ****       -13.2500   6.2500  17.0000 Du        
   9070 ****       -13.2500   6.2500  17.2500 Du        
   9071 ****       -13.2500   6.5000   9.0000 Du        
   9072 ****       -13.2500   6.5000   9.2500 Du        
   9073 ****       -13.2500   6.5000   9.5000 Du        
   9074 ****       -13.2500   6.5000   9.7500 Du        
   9075 ****       -13.2500   6.5000  10.0000 Du        
   9076 ****       -13.2500   6.5000  10.2500 Du        
   9077 ****       -13.2500   6.5000  10.5000 Du        
   9078 ****       -13.2500   6.5000  10.7500 Du        
   9079 ****       -13.2500   6.5000  11.0000 Du        
   9080 ****       -13.2500   6.5000  11.2500 Du        
   9081 ****       -13.2500   6.5000  11.7500 Du        
   9082 ****       -13.2500   6.5000  12.0000 Du        
   9083 ****       -13.2500   6.5000  12.2500 Du        
   9084 ****       -13.2500   6.5000  12.5000 Du        
   9085 ****       -13.2500   6.5000  12.7500 Du        
   9086 ****       -13.2500   6.5000  13.0000 Du        
   9087 ****       -13.2500   6.5000  13.2500 Du        
   9088 ****       -13.2500   6.5000  13.5000 Du        
   9089 ****       -13.2500   6.5000  13.7500 Du        
   9090 ****       -13.2500   6.5000  14.0000 Du        
   9091 ****       -13.2500   6.5000  14.2500 Du        
   9092 ****       -13.2500   6.5000  14.5000 Du        
   9093 ****       -13.2500   6.5000  14.7500 Du        
   9094 ****       -13.2500   6.5000  15.0000 Du        
   9095 ****       -13.2500   6.5000  15.2500 Du        
   9096 ****       -13.2500   6.5000  15.5000 Du        
   9097 ****       -13.2500   6.5000  15.7500 Du        
   9098 ****       -13.2500   6.5000  16.0000 Du        
   9099 ****       -13.2500   6.7500   9.2500 Du        
   9100 ****       -13.2500   6.7500   9.5000 Du        
   9101 ****       -13.2500   6.7500   9.7500 Du        
   9102 ****       -13.2500   6.7500  10.0000 Du        
   9103 ****       -13.2500   6.7500  10.2500 Du        
   9104 ****       -13.2500   6.7500  10.5000 Du        
   9105 ****       -13.2500   6.7500  10.7500 Du        
   9106 ****       -13.2500   6.7500  11.0000 Du        
   9107 ****       -13.2500   6.7500  11.2500 Du        
   9108 ****       -13.2500   6.7500  12.0000 Du        
   9109 ****       -13.2500   6.7500  12.2500 Du        
   9110 ****       -13.2500   6.7500  12.5000 Du        
   9111 ****       -13.2500   6.7500  12.7500 Du        
   9112 ****       -13.2500   6.7500  13.0000 Du        
   9113 ****       -13.2500   6.7500  13.2500 Du        
   9114 ****       -13.2500   6.7500  13.5000 Du        
   9115 ****       -13.2500   6.7500  13.7500 Du        
   9116 ****       -13.2500   6.7500  14.0000 Du        
   9117 ****       -13.2500   6.7500  14.2500 Du        
   9118 ****       -13.2500   6.7500  14.5000 Du        
   9119 ****       -13.2500   6.7500  14.7500 Du        
   9120 ****       -13.2500   6.7500  15.0000 Du        
   9121 ****       -13.2500   6.7500  15.2500 Du        
   9122 ****       -13.2500   6.7500  15.5000 Du        
   9123 ****       -13.2500   6.7500  15.7500 Du        
   9124 ****       -13.2500   7.0000   9.5000 Du        
   9125 ****       -13.2500   7.0000   9.7500 Du        
   9126 ****       -13.2500   7.0000  10.0000 Du        
   9127 ****       -13.2500   7.0000  10.2500 Du        
   9128 ****       -13.2500   7.0000  10.5000 Du        
   9129 ****       -13.2500   7.0000  10.7500 Du        
   9130 ****       -13.2500   7.0000  11.0000 Du        
   9131 ****       -13.2500   7.0000  12.0000 Du        
   9132 ****       -13.2500   7.0000  12.2500 Du        
   9133 ****       -13.2500   7.0000  12.5000 Du        
   9134 ****       -13.2500   7.0000  12.7500 Du        
   9135 ****       -13.2500   7.0000  13.0000 Du        
   9136 ****       -13.2500   7.0000  13.2500 Du        
   9137 ****       -13.2500   7.0000  13.5000 Du        
   9138 ****       -13.2500   7.0000  13.7500 Du        
   9139 ****       -13.2500   7.0000  14.0000 Du        
   9140 ****       -13.2500   7.0000  14.2500 Du        
   9141 ****       -13.2500   7.0000  14.5000 Du        
   9142 ****       -13.2500   7.0000  14.7500 Du        
   9143 ****       -13.2500   7.0000  15.0000 Du        
   9144 ****       -13.2500   7.0000  15.2500 Du        
   9145 ****       -13.2500   7.2500  12.5000 Du        
   9146 ****       -13.2500   7.2500  12.7500 Du        
   9147 ****       -13.2500   7.2500  13.0000 Du        
   9148 ****       -13.2500   7.2500  13.2500 Du        
   9149 ****       -13.2500   7.2500  13.5000 Du        
   9150 ****       -13.2500   7.2500  13.7500 Du        
   9151 ****       -13.2500   7.2500  14.0000 Du        
   9152 ****       -13.2500   7.2500  14.2500 Du        
   9153 ****       -13.2500   7.2500  14.5000 Du        
   9154 ****       -13.2500   7.2500  14.7500 Du        
   9155 ****       -13.2500   7.2500  15.0000 Du        
   9156 ****       -13.2500   7.5000  13.2500 Du        
   9157 ****       -13.2500   7.5000  14.0000 Du        
   9158 ****       -13.2500   7.5000  14.2500 Du        
   9159 ****       -13.2500   7.5000  14.5000 Du        
   9160 ****       -13.2500   7.7500  13.7500 Du        
   9161 ****       -13.2500   7.7500  14.0000 Du        
   9162 ****       -13.2500   7.7500  14.2500 Du        
   9163 ****       -13.2500   8.0000  14.0000 Du        
   9164 ****       -13.2500   9.2500  22.2500 Du        
   9165 ****       -13.2500   9.5000  22.2500 Du        
   9166 ****       -13.2500  11.7500  12.5000 Du        
   9167 ****       -13.2500  11.7500  12.7500 Du        
   9168 ****       -13.2500  11.7500  13.0000 Du        
   9169 ****       -13.2500  11.7500  24.7500 Du        
   9170 ****       -13.2500  11.7500  25.0000 Du        
   9171 ****       -13.2500  12.0000  12.5000 Du        
   9172 ****       -13.2500  12.0000  12.7500 Du        
   9173 ****       -13.2500  12.0000  13.0000 Du        
   9174 ****       -13.2500  12.0000  13.2500 Du        
   9175 ****       -13.2500  12.0000  24.2500 Du        
   9176 ****       -13.2500  12.0000  24.5000 Du        
   9177 ****       -13.2500  12.0000  24.7500 Du        
   9178 ****       -13.2500  12.0000  25.0000 Du        
   9179 ****       -13.2500  12.0000  25.2500 Du        
   9180 ****       -13.2500  12.2500  12.5000 Du        
   9181 ****       -13.2500  12.2500  12.7500 Du        
   9182 ****       -13.2500  12.2500  13.0000 Du        
   9183 ****       -13.2500  12.2500  13.2500 Du        
   9184 ****       -13.2500  12.2500  13.5000 Du        
   9185 ****       -13.2500  12.2500  24.0000 Du        
   9186 ****       -13.2500  12.2500  24.2500 Du        
   9187 ****       -13.2500  12.2500  24.5000 Du        
   9188 ****       -13.2500  12.2500  24.7500 Du        
   9189 ****       -13.2500  12.2500  25.0000 Du        
   9190 ****       -13.2500  12.2500  25.2500 Du        
   9191 ****       -13.2500  12.2500  25.5000 Du        
   9192 ****       -13.2500  12.2500  25.7500 Du        
   9193 ****       -13.2500  12.2500  26.0000 Du        
   9194 ****       -13.2500  12.2500  26.2500 Du        
   9195 ****       -13.2500  12.2500  26.7500 Du        
   9196 ****       -13.2500  12.2500  27.0000 Du        
   9197 ****       -13.2500  12.5000  12.0000 Du        
   9198 ****       -13.2500  12.5000  12.2500 Du        
   9199 ****       -13.2500  12.5000  12.5000 Du        
   9200 ****       -13.2500  12.5000  12.7500 Du        
   9201 ****       -13.2500  12.5000  13.0000 Du        
   9202 ****       -13.2500  12.5000  13.2500 Du        
   9203 ****       -13.2500  12.5000  13.5000 Du        
   9204 ****       -13.2500  12.5000  13.7500 Du        
   9205 ****       -13.2500  12.5000  24.0000 Du        
   9206 ****       -13.2500  12.5000  24.2500 Du        
   9207 ****       -13.2500  12.5000  24.5000 Du        
   9208 ****       -13.2500  12.5000  24.7500 Du        
   9209 ****       -13.2500  12.5000  25.0000 Du        
   9210 ****       -13.2500  12.5000  25.2500 Du        
   9211 ****       -13.2500  12.5000  25.5000 Du        
   9212 ****       -13.2500  12.5000  25.7500 Du        
   9213 ****       -13.2500  12.5000  26.0000 Du        
   9214 ****       -13.2500  12.5000  26.2500 Du        
   9215 ****       -13.2500  12.5000  26.5000 Du        
   9216 ****       -13.2500  12.5000  26.7500 Du        
   9217 ****       -13.2500  12.5000  27.0000 Du        
   9218 ****       -13.2500  12.5000  27.2500 Du        
   9219 ****       -13.2500  12.5000  27.5000 Du        
   9220 ****       -13.2500  12.5000  27.7500 Du        
   9221 ****       -13.2500  12.5000  28.0000 Du        
   9222 ****       -13.2500  12.7500  12.0000 Du        
   9223 ****       -13.2500  12.7500  12.2500 Du        
   9224 ****       -13.2500  12.7500  12.5000 Du        
   9225 ****       -13.2500  12.7500  12.7500 Du        
   9226 ****       -13.2500  12.7500  13.0000 Du        
   9227 ****       -13.2500  12.7500  13.2500 Du        
   9228 ****       -13.2500  12.7500  13.5000 Du        
   9229 ****       -13.2500  12.7500  13.7500 Du        
   9230 ****       -13.2500  12.7500  23.7500 Du        
   9231 ****       -13.2500  12.7500  24.0000 Du        
   9232 ****       -13.2500  12.7500  24.2500 Du        
   9233 ****       -13.2500  12.7500  24.5000 Du        
   9234 ****       -13.2500  12.7500  24.7500 Du        
   9235 ****       -13.2500  12.7500  25.0000 Du        
   9236 ****       -13.2500  12.7500  25.2500 Du        
   9237 ****       -13.2500  12.7500  25.5000 Du        
   9238 ****       -13.2500  12.7500  25.7500 Du        
   9239 ****       -13.2500  12.7500  26.0000 Du        
   9240 ****       -13.2500  12.7500  26.2500 Du        
   9241 ****       -13.2500  12.7500  26.5000 Du        
   9242 ****       -13.2500  12.7500  26.7500 Du        
   9243 ****       -13.2500  12.7500  27.0000 Du        
   9244 ****       -13.2500  12.7500  27.2500 Du        
   9245 ****       -13.2500  12.7500  27.5000 Du        
   9246 ****       -13.2500  12.7500  27.7500 Du        
   9247 ****       -13.2500  12.7500  28.0000 Du        
   9248 ****       -13.2500  13.0000  12.0000 Du        
   9249 ****       -13.2500  13.0000  12.2500 Du        
   9250 ****       -13.2500  13.0000  12.5000 Du        
   9251 ****       -13.2500  13.0000  12.7500 Du        
   9252 ****       -13.2500  13.0000  13.0000 Du        
   9253 ****       -13.2500  13.0000  13.2500 Du        
   9254 ****       -13.2500  13.0000  13.5000 Du        
   9255 ****       -13.2500  13.0000  24.0000 Du        
   9256 ****       -13.2500  13.0000  24.2500 Du        
   9257 ****       -13.2500  13.0000  24.5000 Du        
   9258 ****       -13.2500  13.0000  24.7500 Du        
   9259 ****       -13.2500  13.0000  25.0000 Du        
   9260 ****       -13.2500  13.0000  25.2500 Du        
   9261 ****       -13.2500  13.0000  27.2500 Du        
   9262 ****       -13.2500  13.0000  27.5000 Du        
   9263 ****       -13.2500  13.0000  27.7500 Du        
   9264 ****       -13.2500  13.0000  28.0000 Du        
   9265 ****       -13.2500  13.2500  12.2500 Du        
   9266 ****       -13.2500  13.2500  12.5000 Du        
   9267 ****       -13.2500  13.2500  12.7500 Du        
   9268 ****       -13.2500  13.2500  13.0000 Du        
   9269 ****       -13.2500  13.2500  13.2500 Du        
   9270 ****       -13.2500  13.2500  24.0000 Du        
   9271 ****       -13.2500  13.2500  24.2500 Du        
   9272 ****       -13.2500  13.2500  24.5000 Du        
   9273 ****       -13.2500  13.2500  24.7500 Du        
   9274 ****       -13.2500  13.5000  12.7500 Du        
   9275 ****       -13.2500  13.5000  13.0000 Du        
   9276 ****       -13.0000  -7.5000  24.0000 Du        
   9277 ****       -13.0000  -7.5000  24.2500 Du        
   9278 ****       -13.0000  -7.2500  23.7500 Du        
   9279 ****       -13.0000  -7.2500  24.0000 Du        
   9280 ****       -13.0000  -7.2500  24.2500 Du        
   9281 ****       -13.0000  -7.0000  23.7500 Du        
   9282 ****       -13.0000  -7.0000  24.0000 Du        
   9283 ****       -13.0000  -7.0000  24.2500 Du        
   9284 ****       -13.0000  -6.7500  23.2500 Du        
   9285 ****       -13.0000  -6.7500  23.5000 Du        
   9286 ****       -13.0000  -6.7500  23.7500 Du        
   9287 ****       -13.0000  -6.7500  24.0000 Du        
   9288 ****       -13.0000  -6.7500  24.2500 Du        
   9289 ****       -13.0000  -6.5000  23.2500 Du        
   9290 ****       -13.0000  -6.2500  21.0000 Du        
   9291 ****       -13.0000  -6.2500  21.2500 Du        
   9292 ****       -13.0000  -6.2500  21.5000 Du        
   9293 ****       -13.0000  -6.2500  21.7500 Du        
   9294 ****       -13.0000  -6.2500  22.0000 Du        
   9295 ****       -13.0000  -6.2500  22.2500 Du        
   9296 ****       -13.0000  -6.2500  22.5000 Du        
   9297 ****       -13.0000  -6.2500  22.7500 Du        
   9298 ****       -13.0000  -6.2500  23.0000 Du        
   9299 ****       -13.0000  -6.2500  23.2500 Du        
   9300 ****       -13.0000  -6.0000  21.7500 Du        
   9301 ****       -13.0000  -6.0000  22.0000 Du        
   9302 ****       -13.0000  -6.0000  22.2500 Du        
   9303 ****       -13.0000  -6.0000  22.5000 Du        
   9304 ****       -13.0000  -6.0000  22.7500 Du        
   9305 ****       -13.0000  -6.0000  23.0000 Du        
   9306 ****       -13.0000  -6.0000  23.2500 Du        
   9307 ****       -13.0000  -5.7500  22.0000 Du        
   9308 ****       -13.0000  -5.7500  22.2500 Du        
   9309 ****       -13.0000  -5.7500  22.5000 Du        
   9310 ****       -13.0000  -5.7500  22.7500 Du        
   9311 ****       -13.0000  -5.7500  23.0000 Du        
   9312 ****       -13.0000  -5.7500  23.2500 Du        
   9313 ****       -13.0000  -5.5000  22.5000 Du        
   9314 ****       -13.0000  -5.5000  22.7500 Du        
   9315 ****       -13.0000  -5.5000  23.0000 Du        
   9316 ****       -13.0000  -5.5000  23.2500 Du        
   9317 ****       -13.0000  -5.2500  22.7500 Du        
   9318 ****       -13.0000  -5.2500  23.0000 Du        
   9319 ****       -13.0000  -5.2500  23.2500 Du        
   9320 ****       -13.0000  -5.0000  23.0000 Du        
   9321 ****       -13.0000  -5.0000  23.2500 Du        
   9322 ****       -13.0000   0.5000  21.0000 Du        
   9323 ****       -13.0000   0.5000  21.2500 Du        
   9324 ****       -13.0000   0.7500  20.2500 Du        
   9325 ****       -13.0000   0.7500  20.5000 Du        
   9326 ****       -13.0000   0.7500  20.7500 Du        
   9327 ****       -13.0000   0.7500  21.0000 Du        
   9328 ****       -13.0000   0.7500  21.2500 Du        
   9329 ****       -13.0000   1.0000  20.0000 Du        
   9330 ****       -13.0000   1.0000  20.2500 Du        
   9331 ****       -13.0000   1.0000  20.5000 Du        
   9332 ****       -13.0000   1.0000  20.7500 Du        
   9333 ****       -13.0000   1.0000  21.0000 Du        
   9334 ****       -13.0000   1.0000  21.2500 Du        
   9335 ****       -13.0000   1.2500  19.7500 Du        
   9336 ****       -13.0000   1.2500  20.0000 Du        
   9337 ****       -13.0000   1.2500  20.2500 Du        
   9338 ****       -13.0000   1.2500  20.5000 Du        
   9339 ****       -13.0000   1.2500  20.7500 Du        
   9340 ****       -13.0000   1.2500  21.0000 Du        
   9341 ****       -13.0000   1.5000  19.7500 Du        
   9342 ****       -13.0000   1.5000  20.0000 Du        
   9343 ****       -13.0000   1.5000  20.2500 Du        
   9344 ****       -13.0000   1.5000  20.5000 Du        
   9345 ****       -13.0000   1.7500  19.7500 Du        
   9346 ****       -13.0000   1.7500  20.0000 Du        
   9347 ****       -13.0000   1.7500  20.2500 Du        
   9348 ****       -13.0000   1.7500  20.5000 Du        
   9349 ****       -13.0000   2.0000  19.5000 Du        
   9350 ****       -13.0000   2.0000  19.7500 Du        
   9351 ****       -13.0000   2.0000  20.0000 Du        
   9352 ****       -13.0000   2.0000  20.2500 Du        
   9353 ****       -13.0000   2.2500  19.5000 Du        
   9354 ****       -13.0000   2.2500  19.7500 Du        
   9355 ****       -13.0000   2.2500  20.0000 Du        
   9356 ****       -13.0000   2.2500  20.2500 Du        
   9357 ****       -13.0000   2.5000  19.5000 Du        
   9358 ****       -13.0000   2.5000  19.7500 Du        
   9359 ****       -13.0000   2.5000  20.0000 Du        
   9360 ****       -13.0000   2.7500  19.2500 Du        
   9361 ****       -13.0000   2.7500  19.5000 Du        
   9362 ****       -13.0000   2.7500  19.7500 Du        
   9363 ****       -13.0000   3.0000  19.0000 Du        
   9364 ****       -13.0000   3.2500  18.7500 Du        
   9365 ****       -13.0000   3.5000  16.2500 Du        
   9366 ****       -13.0000   3.5000  16.5000 Du        
   9367 ****       -13.0000   3.5000  16.7500 Du        
   9368 ****       -13.0000   3.5000  17.0000 Du        
   9369 ****       -13.0000   3.5000  17.2500 Du        
   9370 ****       -13.0000   3.5000  18.2500 Du        
   9371 ****       -13.0000   3.7500  16.2500 Du        
   9372 ****       -13.0000   3.7500  16.5000 Du        
   9373 ****       -13.0000   3.7500  16.7500 Du        
   9374 ****       -13.0000   3.7500  17.0000 Du        
   9375 ****       -13.0000   3.7500  17.2500 Du        
   9376 ****       -13.0000   3.7500  17.5000 Du        
   9377 ****       -13.0000   3.7500  17.7500 Du        
   9378 ****       -13.0000   3.7500  18.0000 Du        
   9379 ****       -13.0000   3.7500  18.2500 Du        
   9380 ****       -13.0000   4.0000  16.0000 Du        
   9381 ****       -13.0000   4.0000  16.2500 Du        
   9382 ****       -13.0000   4.0000  16.5000 Du        
   9383 ****       -13.0000   4.0000  16.7500 Du        
   9384 ****       -13.0000   4.0000  17.0000 Du        
   9385 ****       -13.0000   4.0000  17.2500 Du        
   9386 ****       -13.0000   4.0000  17.5000 Du        
   9387 ****       -13.0000   4.0000  17.7500 Du        
   9388 ****       -13.0000   4.0000  18.0000 Du        
   9389 ****       -13.0000   4.0000  18.2500 Du        
   9390 ****       -13.0000   4.2500  15.7500 Du        
   9391 ****       -13.0000   4.2500  16.0000 Du        
   9392 ****       -13.0000   4.2500  16.2500 Du        
   9393 ****       -13.0000   4.2500  16.5000 Du        
   9394 ****       -13.0000   4.2500  16.7500 Du        
   9395 ****       -13.0000   4.2500  17.0000 Du        
   9396 ****       -13.0000   4.2500  17.2500 Du        
   9397 ****       -13.0000   4.2500  17.5000 Du        
   9398 ****       -13.0000   4.2500  17.7500 Du        
   9399 ****       -13.0000   4.2500  18.0000 Du        
   9400 ****       -13.0000   4.2500  18.2500 Du        
   9401 ****       -13.0000   4.5000  15.7500 Du        
   9402 ****       -13.0000   4.5000  16.0000 Du        
   9403 ****       -13.0000   4.5000  16.2500 Du        
   9404 ****       -13.0000   4.5000  16.5000 Du        
   9405 ****       -13.0000   4.5000  16.7500 Du        
   9406 ****       -13.0000   4.5000  17.0000 Du        
   9407 ****       -13.0000   4.5000  17.2500 Du        
   9408 ****       -13.0000   4.5000  17.5000 Du        
   9409 ****       -13.0000   4.5000  17.7500 Du        
   9410 ****       -13.0000   4.5000  18.0000 Du        
   9411 ****       -13.0000   4.7500  15.5000 Du        
   9412 ****       -13.0000   4.7500  15.7500 Du        
   9413 ****       -13.0000   4.7500  16.0000 Du        
   9414 ****       -13.0000   4.7500  16.2500 Du        
   9415 ****       -13.0000   4.7500  16.5000 Du        
   9416 ****       -13.0000   4.7500  16.7500 Du        
   9417 ****       -13.0000   4.7500  17.0000 Du        
   9418 ****       -13.0000   4.7500  17.2500 Du        
   9419 ****       -13.0000   4.7500  17.5000 Du        
   9420 ****       -13.0000   4.7500  17.7500 Du        
   9421 ****       -13.0000   4.7500  18.0000 Du        
   9422 ****       -13.0000   5.0000  15.2500 Du        
   9423 ****       -13.0000   5.0000  15.5000 Du        
   9424 ****       -13.0000   5.0000  15.7500 Du        
   9425 ****       -13.0000   5.0000  16.0000 Du        
   9426 ****       -13.0000   5.0000  16.2500 Du        
   9427 ****       -13.0000   5.0000  16.5000 Du        
   9428 ****       -13.0000   5.0000  16.7500 Du        
   9429 ****       -13.0000   5.0000  17.0000 Du        
   9430 ****       -13.0000   5.0000  17.2500 Du        
   9431 ****       -13.0000   5.0000  17.5000 Du        
   9432 ****       -13.0000   5.0000  17.7500 Du        
   9433 ****       -13.0000   5.0000  18.0000 Du        
   9434 ****       -13.0000   5.0000  18.2500 Du        
   9435 ****       -13.0000   5.2500  15.0000 Du        
   9436 ****       -13.0000   5.2500  15.2500 Du        
   9437 ****       -13.0000   5.2500  15.5000 Du        
   9438 ****       -13.0000   5.2500  15.7500 Du        
   9439 ****       -13.0000   5.2500  16.0000 Du        
   9440 ****       -13.0000   5.2500  16.2500 Du        
   9441 ****       -13.0000   5.2500  16.5000 Du        
   9442 ****       -13.0000   5.2500  16.7500 Du        
   9443 ****       -13.0000   5.2500  17.0000 Du        
   9444 ****       -13.0000   5.2500  17.2500 Du        
   9445 ****       -13.0000   5.2500  17.5000 Du        
   9446 ****       -13.0000   5.2500  17.7500 Du        
   9447 ****       -13.0000   5.2500  18.0000 Du        
   9448 ****       -13.0000   5.5000   9.0000 Du        
   9449 ****       -13.0000   5.5000  14.7500 Du        
   9450 ****       -13.0000   5.5000  15.0000 Du        
   9451 ****       -13.0000   5.5000  15.2500 Du        
   9452 ****       -13.0000   5.5000  15.5000 Du        
   9453 ****       -13.0000   5.5000  15.7500 Du        
   9454 ****       -13.0000   5.5000  16.0000 Du        
   9455 ****       -13.0000   5.5000  16.2500 Du        
   9456 ****       -13.0000   5.5000  16.5000 Du        
   9457 ****       -13.0000   5.5000  16.7500 Du        
   9458 ****       -13.0000   5.5000  17.0000 Du        
   9459 ****       -13.0000   5.5000  17.2500 Du        
   9460 ****       -13.0000   5.5000  17.5000 Du        
   9461 ****       -13.0000   5.5000  17.7500 Du        
   9462 ****       -13.0000   5.7500   9.0000 Du        
   9463 ****       -13.0000   5.7500   9.2500 Du        
   9464 ****       -13.0000   5.7500   9.5000 Du        
   9465 ****       -13.0000   5.7500   9.7500 Du        
   9466 ****       -13.0000   5.7500  14.2500 Du        
   9467 ****       -13.0000   5.7500  14.5000 Du        
   9468 ****       -13.0000   5.7500  14.7500 Du        
   9469 ****       -13.0000   5.7500  15.0000 Du        
   9470 ****       -13.0000   5.7500  15.2500 Du        
   9471 ****       -13.0000   5.7500  15.5000 Du        
   9472 ****       -13.0000   5.7500  15.7500 Du        
   9473 ****       -13.0000   5.7500  16.0000 Du        
   9474 ****       -13.0000   5.7500  16.2500 Du        
   9475 ****       -13.0000   5.7500  16.5000 Du        
   9476 ****       -13.0000   5.7500  16.7500 Du        
   9477 ****       -13.0000   5.7500  17.0000 Du        
   9478 ****       -13.0000   5.7500  17.2500 Du        
   9479 ****       -13.0000   5.7500  17.5000 Du        
   9480 ****       -13.0000   5.7500  17.7500 Du        
   9481 ****       -13.0000   5.7500  18.0000 Du        
   9482 ****       -13.0000   6.0000   9.0000 Du        
   9483 ****       -13.0000   6.0000   9.2500 Du        
   9484 ****       -13.0000   6.0000   9.5000 Du        
   9485 ****       -13.0000   6.0000   9.7500 Du        
   9486 ****       -13.0000   6.0000  10.0000 Du        
   9487 ****       -13.0000   6.0000  10.2500 Du        
   9488 ****       -13.0000   6.0000  10.5000 Du        
   9489 ****       -13.0000   6.0000  10.7500 Du        
   9490 ****       -13.0000   6.0000  11.0000 Du        
   9491 ****       -13.0000   6.0000  13.7500 Du        
   9492 ****       -13.0000   6.0000  14.0000 Du        
   9493 ****       -13.0000   6.0000  14.2500 Du        
   9494 ****       -13.0000   6.0000  14.5000 Du        
   9495 ****       -13.0000   6.0000  14.7500 Du        
   9496 ****       -13.0000   6.0000  15.0000 Du        
   9497 ****       -13.0000   6.0000  15.2500 Du        
   9498 ****       -13.0000   6.0000  15.5000 Du        
   9499 ****       -13.0000   6.0000  15.7500 Du        
   9500 ****       -13.0000   6.0000  16.0000 Du        
   9501 ****       -13.0000   6.0000  16.2500 Du        
   9502 ****       -13.0000   6.0000  16.5000 Du        
   9503 ****       -13.0000   6.0000  16.7500 Du        
   9504 ****       -13.0000   6.0000  17.0000 Du        
   9505 ****       -13.0000   6.0000  17.2500 Du        
   9506 ****       -13.0000   6.0000  17.5000 Du        
   9507 ****       -13.0000   6.0000  17.7500 Du        
   9508 ****       -13.0000   6.0000  18.0000 Du        
   9509 ****       -13.0000   6.0000  18.2500 Du        
   9510 ****       -13.0000   6.2500   9.0000 Du        
   9511 ****       -13.0000   6.2500   9.2500 Du        
   9512 ****       -13.0000   6.2500   9.5000 Du        
   9513 ****       -13.0000   6.2500   9.7500 Du        
   9514 ****       -13.0000   6.2500  10.0000 Du        
   9515 ****       -13.0000   6.2500  10.2500 Du        
   9516 ****       -13.0000   6.2500  10.5000 Du        
   9517 ****       -13.0000   6.2500  10.7500 Du        
   9518 ****       -13.0000   6.2500  11.0000 Du        
   9519 ****       -13.0000   6.2500  11.2500 Du        
   9520 ****       -13.0000   6.2500  11.5000 Du        
   9521 ****       -13.0000   6.2500  13.5000 Du        
   9522 ****       -13.0000   6.2500  13.7500 Du        
   9523 ****       -13.0000   6.2500  14.0000 Du        
   9524 ****       -13.0000   6.2500  14.2500 Du        
   9525 ****       -13.0000   6.2500  14.5000 Du        
   9526 ****       -13.0000   6.2500  14.7500 Du        
   9527 ****       -13.0000   6.2500  15.0000 Du        
   9528 ****       -13.0000   6.2500  15.2500 Du        
   9529 ****       -13.0000   6.2500  15.5000 Du        
   9530 ****       -13.0000   6.2500  15.7500 Du        
   9531 ****       -13.0000   6.2500  16.0000 Du        
   9532 ****       -13.0000   6.2500  16.2500 Du        
   9533 ****       -13.0000   6.2500  16.5000 Du        
   9534 ****       -13.0000   6.2500  16.7500 Du        
   9535 ****       -13.0000   6.2500  17.0000 Du        
   9536 ****       -13.0000   6.2500  17.2500 Du        
   9537 ****       -13.0000   6.2500  17.5000 Du        
   9538 ****       -13.0000   6.2500  17.7500 Du        
   9539 ****       -13.0000   6.5000   9.0000 Du        
   9540 ****       -13.0000   6.5000   9.2500 Du        
   9541 ****       -13.0000   6.5000   9.5000 Du        
   9542 ****       -13.0000   6.5000   9.7500 Du        
   9543 ****       -13.0000   6.5000  10.0000 Du        
   9544 ****       -13.0000   6.5000  10.2500 Du        
   9545 ****       -13.0000   6.5000  10.5000 Du        
   9546 ****       -13.0000   6.5000  10.7500 Du        
   9547 ****       -13.0000   6.5000  11.0000 Du        
   9548 ****       -13.0000   6.5000  11.2500 Du        
   9549 ****       -13.0000   6.5000  13.5000 Du        
   9550 ****       -13.0000   6.5000  13.7500 Du        
   9551 ****       -13.0000   6.5000  14.0000 Du        
   9552 ****       -13.0000   6.5000  14.2500 Du        
   9553 ****       -13.0000   6.5000  14.5000 Du        
   9554 ****       -13.0000   6.5000  14.7500 Du        
   9555 ****       -13.0000   6.5000  15.0000 Du        
   9556 ****       -13.0000   6.5000  15.2500 Du        
   9557 ****       -13.0000   6.5000  15.5000 Du        
   9558 ****       -13.0000   6.5000  15.7500 Du        
   9559 ****       -13.0000   6.5000  16.0000 Du        
   9560 ****       -13.0000   6.5000  16.2500 Du        
   9561 ****       -13.0000   6.5000  16.5000 Du        
   9562 ****       -13.0000   6.7500   9.0000 Du        
   9563 ****       -13.0000   6.7500   9.2500 Du        
   9564 ****       -13.0000   6.7500   9.5000 Du        
   9565 ****       -13.0000   6.7500   9.7500 Du        
   9566 ****       -13.0000   6.7500  10.0000 Du        
   9567 ****       -13.0000   6.7500  10.2500 Du        
   9568 ****       -13.0000   6.7500  10.5000 Du        
   9569 ****       -13.0000   6.7500  10.7500 Du        
   9570 ****       -13.0000   6.7500  11.0000 Du        
   9571 ****       -13.0000   6.7500  11.2500 Du        
   9572 ****       -13.0000   6.7500  13.5000 Du        
   9573 ****       -13.0000   6.7500  13.7500 Du        
   9574 ****       -13.0000   6.7500  14.0000 Du        
   9575 ****       -13.0000   6.7500  14.2500 Du        
   9576 ****       -13.0000   6.7500  14.5000 Du        
   9577 ****       -13.0000   6.7500  14.7500 Du        
   9578 ****       -13.0000   6.7500  15.0000 Du        
   9579 ****       -13.0000   6.7500  15.2500 Du        
   9580 ****       -13.0000   6.7500  15.5000 Du        
   9581 ****       -13.0000   6.7500  15.7500 Du        
   9582 ****       -13.0000   6.7500  16.0000 Du        
   9583 ****       -13.0000   7.0000   9.5000 Du        
   9584 ****       -13.0000   7.0000   9.7500 Du        
   9585 ****       -13.0000   7.0000  10.0000 Du        
   9586 ****       -13.0000   7.0000  10.2500 Du        
   9587 ****       -13.0000   7.0000  10.5000 Du        
   9588 ****       -13.0000   7.0000  10.7500 Du        
   9589 ****       -13.0000   7.0000  11.0000 Du        
   9590 ****       -13.0000   7.0000  13.5000 Du        
   9591 ****       -13.0000   7.0000  13.7500 Du        
   9592 ****       -13.0000   7.0000  14.0000 Du        
   9593 ****       -13.0000   7.0000  14.2500 Du        
   9594 ****       -13.0000   7.0000  14.5000 Du        
   9595 ****       -13.0000   7.0000  14.7500 Du        
   9596 ****       -13.0000   7.0000  15.0000 Du        
   9597 ****       -13.0000   7.0000  15.2500 Du        
   9598 ****       -13.0000   7.0000  15.5000 Du        
   9599 ****       -13.0000   7.2500  10.0000 Du        
   9600 ****       -13.0000   7.2500  10.2500 Du        
   9601 ****       -13.0000   7.2500  10.5000 Du        
   9602 ****       -13.0000   7.2500  10.7500 Du        
   9603 ****       -13.0000   7.2500  13.7500 Du        
   9604 ****       -13.0000   7.2500  14.0000 Du        
   9605 ****       -13.0000   7.2500  14.2500 Du        
   9606 ****       -13.0000   7.2500  14.5000 Du        
   9607 ****       -13.0000   7.2500  14.7500 Du        
   9608 ****       -13.0000   7.2500  15.0000 Du        
   9609 ****       -13.0000   7.2500  15.2500 Du        
   9610 ****       -13.0000   7.5000  14.0000 Du        
   9611 ****       -13.0000   7.5000  14.2500 Du        
   9612 ****       -13.0000   7.5000  14.5000 Du        
   9613 ****       -13.0000   7.5000  14.7500 Du        
   9614 ****       -13.0000   7.7500  14.0000 Du        
   9615 ****       -13.0000   7.7500  14.2500 Du        
   9616 ****       -13.0000   8.7500  22.0000 Du        
   9617 ****       -13.0000   9.0000  22.0000 Du        
   9618 ****       -13.0000   9.0000  22.2500 Du        
   9619 ****       -13.0000   9.2500  22.0000 Du        
   9620 ****       -13.0000   9.2500  22.2500 Du        
   9621 ****       -13.0000  10.5000  13.0000 Du        
   9622 ****       -13.0000  10.7500  12.7500 Du        
   9623 ****       -13.0000  10.7500  13.0000 Du        
   9624 ****       -13.0000  10.7500  13.2500 Du        
   9625 ****       -13.0000  11.0000  12.7500 Du        
   9626 ****       -13.0000  11.0000  13.0000 Du        
   9627 ****       -13.0000  11.0000  13.2500 Du        
   9628 ****       -13.0000  11.2500  12.5000 Du        
   9629 ****       -13.0000  11.2500  12.7500 Du        
   9630 ****       -13.0000  11.2500  13.0000 Du        
   9631 ****       -13.0000  11.2500  13.2500 Du        
   9632 ****       -13.0000  11.5000  12.5000 Du        
   9633 ****       -13.0000  11.5000  12.7500 Du        
   9634 ****       -13.0000  11.5000  13.0000 Du        
   9635 ****       -13.0000  11.5000  13.2500 Du        
   9636 ****       -13.0000  11.7500  12.2500 Du        
   9637 ****       -13.0000  11.7500  12.5000 Du        
   9638 ****       -13.0000  11.7500  12.7500 Du        
   9639 ****       -13.0000  11.7500  13.0000 Du        
   9640 ****       -13.0000  11.7500  13.2500 Du        
   9641 ****       -13.0000  11.7500  13.5000 Du        
   9642 ****       -13.0000  12.0000  12.0000 Du        
   9643 ****       -13.0000  12.0000  12.2500 Du        
   9644 ****       -13.0000  12.0000  12.5000 Du        
   9645 ****       -13.0000  12.0000  12.7500 Du        
   9646 ****       -13.0000  12.0000  13.0000 Du        
   9647 ****       -13.0000  12.0000  13.2500 Du        
   9648 ****       -13.0000  12.0000  13.5000 Du        
   9649 ****       -13.0000  12.0000  13.7500 Du        
   9650 ****       -13.0000  12.0000  24.7500 Du        
   9651 ****       -13.0000  12.0000  25.0000 Du        
   9652 ****       -13.0000  12.0000  25.2500 Du        
   9653 ****       -13.0000  12.2500  12.0000 Du        
   9654 ****       -13.0000  12.2500  12.2500 Du        
   9655 ****       -13.0000  12.2500  12.5000 Du        
   9656 ****       -13.0000  12.2500  12.7500 Du        
   9657 ****       -13.0000  12.2500  13.0000 Du        
   9658 ****       -13.0000  12.2500  13.2500 Du        
   9659 ****       -13.0000  12.2500  13.5000 Du        
   9660 ****       -13.0000  12.2500  13.7500 Du        
   9661 ****       -13.0000  12.2500  24.5000 Du        
   9662 ****       -13.0000  12.2500  24.7500 Du        
   9663 ****       -13.0000  12.2500  25.0000 Du        
   9664 ****       -13.0000  12.2500  25.2500 Du        
   9665 ****       -13.0000  12.2500  25.5000 Du        
   9666 ****       -13.0000  12.2500  25.7500 Du        
   9667 ****       -13.0000  12.2500  26.0000 Du        
   9668 ****       -13.0000  12.2500  26.2500 Du        
   9669 ****       -13.0000  12.2500  26.5000 Du        
   9670 ****       -13.0000  12.2500  26.7500 Du        
   9671 ****       -13.0000  12.2500  27.0000 Du        
   9672 ****       -13.0000  12.2500  27.2500 Du        
   9673 ****       -13.0000  12.5000  12.0000 Du        
   9674 ****       -13.0000  12.5000  12.2500 Du        
   9675 ****       -13.0000  12.5000  12.5000 Du        
   9676 ****       -13.0000  12.5000  12.7500 Du        
   9677 ****       -13.0000  12.5000  13.0000 Du        
   9678 ****       -13.0000  12.5000  13.2500 Du        
   9679 ****       -13.0000  12.5000  13.5000 Du        
   9680 ****       -13.0000  12.5000  13.7500 Du        
   9681 ****       -13.0000  12.5000  14.0000 Du        
   9682 ****       -13.0000  12.5000  24.2500 Du        
   9683 ****       -13.0000  12.5000  24.5000 Du        
   9684 ****       -13.0000  12.5000  24.7500 Du        
   9685 ****       -13.0000  12.5000  25.0000 Du        
   9686 ****       -13.0000  12.5000  25.2500 Du        
   9687 ****       -13.0000  12.5000  25.5000 Du        
   9688 ****       -13.0000  12.5000  25.7500 Du        
   9689 ****       -13.0000  12.5000  26.0000 Du        
   9690 ****       -13.0000  12.5000  26.2500 Du        
   9691 ****       -13.0000  12.5000  26.5000 Du        
   9692 ****       -13.0000  12.5000  26.7500 Du        
   9693 ****       -13.0000  12.5000  27.0000 Du        
   9694 ****       -13.0000  12.5000  27.2500 Du        
   9695 ****       -13.0000  12.5000  27.5000 Du        
   9696 ****       -13.0000  12.5000  27.7500 Du        
   9697 ****       -13.0000  12.5000  28.0000 Du        
   9698 ****       -13.0000  12.7500  12.0000 Du        
   9699 ****       -13.0000  12.7500  12.2500 Du        
   9700 ****       -13.0000  12.7500  12.5000 Du        
   9701 ****       -13.0000  12.7500  12.7500 Du        
   9702 ****       -13.0000  12.7500  13.0000 Du        
   9703 ****       -13.0000  12.7500  13.2500 Du        
   9704 ****       -13.0000  12.7500  13.5000 Du        
   9705 ****       -13.0000  12.7500  13.7500 Du        
   9706 ****       -13.0000  12.7500  14.0000 Du        
   9707 ****       -13.0000  12.7500  24.0000 Du        
   9708 ****       -13.0000  12.7500  24.2500 Du        
   9709 ****       -13.0000  12.7500  24.5000 Du        
   9710 ****       -13.0000  12.7500  24.7500 Du        
   9711 ****       -13.0000  12.7500  25.0000 Du        
   9712 ****       -13.0000  12.7500  25.2500 Du        
   9713 ****       -13.0000  12.7500  25.5000 Du        
   9714 ****       -13.0000  12.7500  25.7500 Du        
   9715 ****       -13.0000  12.7500  26.0000 Du        
   9716 ****       -13.0000  12.7500  26.2500 Du        
   9717 ****       -13.0000  12.7500  26.5000 Du        
   9718 ****       -13.0000  12.7500  26.7500 Du        
   9719 ****       -13.0000  12.7500  27.0000 Du        
   9720 ****       -13.0000  12.7500  27.2500 Du        
   9721 ****       -13.0000  12.7500  27.5000 Du        
   9722 ****       -13.0000  12.7500  27.7500 Du        
   9723 ****       -13.0000  12.7500  28.0000 Du        
   9724 ****       -13.0000  12.7500  28.2500 Du        
   9725 ****       -13.0000  13.0000  12.0000 Du        
   9726 ****       -13.0000  13.0000  12.2500 Du        
   9727 ****       -13.0000  13.0000  12.5000 Du        
   9728 ****       -13.0000  13.0000  12.7500 Du        
   9729 ****       -13.0000  13.0000  13.0000 Du        
   9730 ****       -13.0000  13.0000  13.2500 Du        
   9731 ****       -13.0000  13.0000  13.5000 Du        
   9732 ****       -13.0000  13.0000  13.7500 Du        
   9733 ****       -13.0000  13.0000  24.0000 Du        
   9734 ****       -13.0000  13.0000  24.2500 Du        
   9735 ****       -13.0000  13.0000  24.5000 Du        
   9736 ****       -13.0000  13.0000  24.7500 Du        
   9737 ****       -13.0000  13.0000  25.0000 Du        
   9738 ****       -13.0000  13.0000  25.2500 Du        
   9739 ****       -13.0000  13.0000  25.5000 Du        
   9740 ****       -13.0000  13.0000  25.7500 Du        
   9741 ****       -13.0000  13.0000  26.0000 Du        
   9742 ****       -13.0000  13.0000  26.2500 Du        
   9743 ****       -13.0000  13.0000  26.5000 Du        
   9744 ****       -13.0000  13.0000  26.7500 Du        
   9745 ****       -13.0000  13.0000  27.0000 Du        
   9746 ****       -13.0000  13.0000  27.2500 Du        
   9747 ****       -13.0000  13.0000  27.5000 Du        
   9748 ****       -13.0000  13.0000  27.7500 Du        
   9749 ****       -13.0000  13.0000  28.0000 Du        
   9750 ****       -13.0000  13.2500  12.2500 Du        
   9751 ****       -13.0000  13.2500  12.5000 Du        
   9752 ****       -13.0000  13.2500  12.7500 Du        
   9753 ****       -13.0000  13.2500  13.0000 Du        
   9754 ****       -13.0000  13.2500  13.2500 Du        
   9755 ****       -13.0000  13.2500  13.5000 Du        
   9756 ****       -13.0000  13.2500  24.2500 Du        
   9757 ****       -13.0000  13.2500  24.5000 Du        
   9758 ****       -13.0000  13.2500  24.7500 Du        
   9759 ****       -13.0000  13.2500  25.0000 Du        
   9760 ****       -13.0000  13.2500  25.2500 Du        
   9761 ****       -13.0000  13.2500  27.2500 Du        
   9762 ****       -13.0000  13.2500  27.7500 Du        
   9763 ****       -13.0000  13.2500  28.0000 Du        
   9764 ****       -13.0000  13.5000  12.7500 Du        
   9765 ****       -13.0000  13.5000  13.0000 Du        
   9766 ****       -13.0000  13.5000  24.2500 Du        
   9767 ****       -13.0000  13.5000  24.5000 Du        
   9768 ****       -12.7500 -15.0000  27.0000 Du        
   9769 ****       -12.7500 -15.0000  27.2500 Du        
   9770 ****       -12.7500 -14.7500  27.0000 Du        
   9771 ****       -12.7500 -14.7500  27.2500 Du        
   9772 ****       -12.7500 -14.7500  27.5000 Du        
   9773 ****       -12.7500 -14.5000  27.2500 Du        
   9774 ****       -12.7500 -14.2500  27.2500 Du        
   9775 ****       -12.7500 -14.0000  27.5000 Du        
   9776 ****       -12.7500 -14.0000  27.7500 Du        
   9777 ****       -12.7500 -13.7500  27.7500 Du        
   9778 ****       -12.7500 -13.7500  28.0000 Du        
   9779 ****       -12.7500 -13.5000  27.7500 Du        
   9780 ****       -12.7500 -13.2500  27.7500 Du        
   9781 ****       -12.7500  -7.2500  24.2500 Du        
   9782 ****       -12.7500  -7.0000  24.2500 Du        
   9783 ****       -12.7500  -5.7500  23.0000 Du        
   9784 ****       -12.7500  -5.7500  23.2500 Du        
   9785 ****       -12.7500   0.7500  21.0000 Du        
   9786 ****       -12.7500   1.0000  20.0000 Du        
   9787 ****       -12.7500   1.0000  20.2500 Du        
   9788 ****       -12.7500   1.0000  20.5000 Du        
   9789 ****       -12.7500   1.0000  20.7500 Du        
   9790 ****       -12.7500   1.0000  21.0000 Du        
   9791 ****       -12.7500   1.2500  19.7500 Du        
   9792 ****       -12.7500   1.2500  20.0000 Du        
   9793 ****       -12.7500   1.2500  20.2500 Du        
   9794 ****       -12.7500   1.2500  20.5000 Du        
   9795 ****       -12.7500   1.2500  20.7500 Du        
   9796 ****       -12.7500   1.5000  19.5000 Du        
   9797 ****       -12.7500   1.5000  19.7500 Du        
   9798 ****       -12.7500   1.5000  20.0000 Du        
   9799 ****       -12.7500   1.5000  20.2500 Du        
   9800 ****       -12.7500   1.5000  20.5000 Du        
   9801 ****       -12.7500   1.7500  19.2500 Du        
   9802 ****       -12.7500   1.7500  19.5000 Du        
   9803 ****       -12.7500   1.7500  19.7500 Du        
   9804 ****       -12.7500   1.7500  20.0000 Du        
   9805 ****       -12.7500   1.7500  20.2500 Du        
   9806 ****       -12.7500   1.7500  20.5000 Du        
   9807 ****       -12.7500   2.0000  19.2500 Du        
   9808 ****       -12.7500   2.0000  19.5000 Du        
   9809 ****       -12.7500   2.0000  19.7500 Du        
   9810 ****       -12.7500   2.0000  20.0000 Du        
   9811 ****       -12.7500   2.0000  20.2500 Du        
   9812 ****       -12.7500   2.2500  19.0000 Du        
   9813 ****       -12.7500   2.2500  19.2500 Du        
   9814 ****       -12.7500   2.2500  19.5000 Du        
   9815 ****       -12.7500   2.2500  19.7500 Du        
   9816 ****       -12.7500   2.2500  20.0000 Du        
   9817 ****       -12.7500   2.2500  20.2500 Du        
   9818 ****       -12.7500   2.5000  19.0000 Du        
   9819 ****       -12.7500   2.5000  19.2500 Du        
   9820 ****       -12.7500   2.5000  19.5000 Du        
   9821 ****       -12.7500   2.5000  19.7500 Du        
   9822 ****       -12.7500   2.5000  20.0000 Du        
   9823 ****       -12.7500   2.7500  18.7500 Du        
   9824 ****       -12.7500   2.7500  19.0000 Du        
   9825 ****       -12.7500   2.7500  19.2500 Du        
   9826 ****       -12.7500   2.7500  19.5000 Du        
   9827 ****       -12.7500   2.7500  19.7500 Du        
   9828 ****       -12.7500   3.0000  18.7500 Du        
   9829 ****       -12.7500   3.0000  19.0000 Du        
   9830 ****       -12.7500   3.0000  19.2500 Du        
   9831 ****       -12.7500   3.2500  16.5000 Du        
   9832 ****       -12.7500   3.2500  16.7500 Du        
   9833 ****       -12.7500   3.2500  17.0000 Du        
   9834 ****       -12.7500   3.2500  17.2500 Du        
   9835 ****       -12.7500   3.2500  17.5000 Du        
   9836 ****       -12.7500   3.2500  17.7500 Du        
   9837 ****       -12.7500   3.2500  18.0000 Du        
   9838 ****       -12.7500   3.2500  18.2500 Du        
   9839 ****       -12.7500   3.2500  18.5000 Du        
   9840 ****       -12.7500   3.2500  18.7500 Du        
   9841 ****       -12.7500   3.2500  19.0000 Du        
   9842 ****       -12.7500   3.5000  16.5000 Du        
   9843 ****       -12.7500   3.5000  16.7500 Du        
   9844 ****       -12.7500   3.5000  17.0000 Du        
   9845 ****       -12.7500   3.5000  17.2500 Du        
   9846 ****       -12.7500   3.5000  17.5000 Du        
   9847 ****       -12.7500   3.5000  17.7500 Du        
   9848 ****       -12.7500   3.5000  18.0000 Du        
   9849 ****       -12.7500   3.5000  18.2500 Du        
   9850 ****       -12.7500   3.7500  16.2500 Du        
   9851 ****       -12.7500   3.7500  16.5000 Du        
   9852 ****       -12.7500   3.7500  16.7500 Du        
   9853 ****       -12.7500   3.7500  17.0000 Du        
   9854 ****       -12.7500   3.7500  17.2500 Du        
   9855 ****       -12.7500   3.7500  17.5000 Du        
   9856 ****       -12.7500   3.7500  17.7500 Du        
   9857 ****       -12.7500   3.7500  18.0000 Du        
   9858 ****       -12.7500   3.7500  18.2500 Du        
   9859 ****       -12.7500   4.0000  16.2500 Du        
   9860 ****       -12.7500   4.0000  16.5000 Du        
   9861 ****       -12.7500   4.0000  16.7500 Du        
   9862 ****       -12.7500   4.0000  17.0000 Du        
   9863 ****       -12.7500   4.0000  17.2500 Du        
   9864 ****       -12.7500   4.0000  17.5000 Du        
   9865 ****       -12.7500   4.0000  17.7500 Du        
   9866 ****       -12.7500   4.0000  18.0000 Du        
   9867 ****       -12.7500   4.0000  18.2500 Du        
   9868 ****       -12.7500   4.2500  16.0000 Du        
   9869 ****       -12.7500   4.2500  16.2500 Du        
   9870 ****       -12.7500   4.2500  16.5000 Du        
   9871 ****       -12.7500   4.2500  16.7500 Du        
   9872 ****       -12.7500   4.2500  17.0000 Du        
   9873 ****       -12.7500   4.2500  17.2500 Du        
   9874 ****       -12.7500   4.2500  17.5000 Du        
   9875 ****       -12.7500   4.2500  17.7500 Du        
   9876 ****       -12.7500   4.5000  16.0000 Du        
   9877 ****       -12.7500   4.5000  16.2500 Du        
   9878 ****       -12.7500   4.5000  16.5000 Du        
   9879 ****       -12.7500   4.5000  16.7500 Du        
   9880 ****       -12.7500   4.5000  17.0000 Du        
   9881 ****       -12.7500   4.5000  17.2500 Du        
   9882 ****       -12.7500   4.5000  17.5000 Du        
   9883 ****       -12.7500   4.5000  17.7500 Du        
   9884 ****       -12.7500   4.7500  15.7500 Du        
   9885 ****       -12.7500   4.7500  16.0000 Du        
   9886 ****       -12.7500   4.7500  16.2500 Du        
   9887 ****       -12.7500   4.7500  16.5000 Du        
   9888 ****       -12.7500   4.7500  16.7500 Du        
   9889 ****       -12.7500   4.7500  17.0000 Du        
   9890 ****       -12.7500   4.7500  17.2500 Du        
   9891 ****       -12.7500   4.7500  17.5000 Du        
   9892 ****       -12.7500   5.0000  15.5000 Du        
   9893 ****       -12.7500   5.0000  15.7500 Du        
   9894 ****       -12.7500   5.0000  16.0000 Du        
   9895 ****       -12.7500   5.0000  16.2500 Du        
   9896 ****       -12.7500   5.0000  16.5000 Du        
   9897 ****       -12.7500   5.0000  16.7500 Du        
   9898 ****       -12.7500   5.0000  17.0000 Du        
   9899 ****       -12.7500   5.0000  17.2500 Du        
   9900 ****       -12.7500   5.0000  17.5000 Du        
   9901 ****       -12.7500   5.2500   9.0000 Du        
   9902 ****       -12.7500   5.2500   9.2500 Du        
   9903 ****       -12.7500   5.2500  15.2500 Du        
   9904 ****       -12.7500   5.2500  15.5000 Du        
   9905 ****       -12.7500   5.2500  15.7500 Du        
   9906 ****       -12.7500   5.2500  16.0000 Du        
   9907 ****       -12.7500   5.2500  16.2500 Du        
   9908 ****       -12.7500   5.2500  16.5000 Du        
   9909 ****       -12.7500   5.2500  16.7500 Du        
   9910 ****       -12.7500   5.2500  17.0000 Du        
   9911 ****       -12.7500   5.2500  17.2500 Du        
   9912 ****       -12.7500   5.2500  17.5000 Du        
   9913 ****       -12.7500   5.5000   9.0000 Du        
   9914 ****       -12.7500   5.5000   9.2500 Du        
   9915 ****       -12.7500   5.5000   9.5000 Du        
   9916 ****       -12.7500   5.5000  14.7500 Du        
   9917 ****       -12.7500   5.5000  15.0000 Du        
   9918 ****       -12.7500   5.5000  15.2500 Du        
   9919 ****       -12.7500   5.5000  15.5000 Du        
   9920 ****       -12.7500   5.5000  15.7500 Du        
   9921 ****       -12.7500   5.5000  16.0000 Du        
   9922 ****       -12.7500   5.5000  16.2500 Du        
   9923 ****       -12.7500   5.5000  16.5000 Du        
   9924 ****       -12.7500   5.5000  16.7500 Du        
   9925 ****       -12.7500   5.5000  17.0000 Du        
   9926 ****       -12.7500   5.5000  17.2500 Du        
   9927 ****       -12.7500   5.5000  17.5000 Du        
   9928 ****       -12.7500   5.7500   9.0000 Du        
   9929 ****       -12.7500   5.7500   9.2500 Du        
   9930 ****       -12.7500   5.7500   9.5000 Du        
   9931 ****       -12.7500   5.7500   9.7500 Du        
   9932 ****       -12.7500   5.7500  10.0000 Du        
   9933 ****       -12.7500   5.7500  10.2500 Du        
   9934 ****       -12.7500   5.7500  14.5000 Du        
   9935 ****       -12.7500   5.7500  14.7500 Du        
   9936 ****       -12.7500   5.7500  15.0000 Du        
   9937 ****       -12.7500   5.7500  15.2500 Du        
   9938 ****       -12.7500   5.7500  15.5000 Du        
   9939 ****       -12.7500   5.7500  15.7500 Du        
   9940 ****       -12.7500   5.7500  16.0000 Du        
   9941 ****       -12.7500   5.7500  16.2500 Du        
   9942 ****       -12.7500   5.7500  16.5000 Du        
   9943 ****       -12.7500   5.7500  16.7500 Du        
   9944 ****       -12.7500   5.7500  17.0000 Du        
   9945 ****       -12.7500   5.7500  17.2500 Du        
   9946 ****       -12.7500   5.7500  17.5000 Du        
   9947 ****       -12.7500   5.7500  17.7500 Du        
   9948 ****       -12.7500   6.0000   9.0000 Du        
   9949 ****       -12.7500   6.0000   9.2500 Du        
   9950 ****       -12.7500   6.0000   9.5000 Du        
   9951 ****       -12.7500   6.0000   9.7500 Du        
   9952 ****       -12.7500   6.0000  10.0000 Du        
   9953 ****       -12.7500   6.0000  10.2500 Du        
   9954 ****       -12.7500   6.0000  10.5000 Du        
   9955 ****       -12.7500   6.0000  10.7500 Du        
   9956 ****       -12.7500   6.0000  14.2500 Du        
   9957 ****       -12.7500   6.0000  14.5000 Du        
   9958 ****       -12.7500   6.0000  14.7500 Du        
   9959 ****       -12.7500   6.0000  15.0000 Du        
   9960 ****       -12.7500   6.0000  15.2500 Du        
   9961 ****       -12.7500   6.0000  15.5000 Du        
   9962 ****       -12.7500   6.0000  15.7500 Du        
   9963 ****       -12.7500   6.0000  16.0000 Du        
   9964 ****       -12.7500   6.0000  16.2500 Du        
   9965 ****       -12.7500   6.0000  16.5000 Du        
   9966 ****       -12.7500   6.0000  16.7500 Du        
   9967 ****       -12.7500   6.0000  17.0000 Du        
   9968 ****       -12.7500   6.0000  17.2500 Du        
   9969 ****       -12.7500   6.0000  17.5000 Du        
   9970 ****       -12.7500   6.0000  17.7500 Du        
   9971 ****       -12.7500   6.0000  18.0000 Du        
   9972 ****       -12.7500   6.2500   9.0000 Du        
   9973 ****       -12.7500   6.2500   9.2500 Du        
   9974 ****       -12.7500   6.2500   9.5000 Du        
   9975 ****       -12.7500   6.2500   9.7500 Du        
   9976 ****       -12.7500   6.2500  10.0000 Du        
   9977 ****       -12.7500   6.2500  10.2500 Du        
   9978 ****       -12.7500   6.2500  10.5000 Du        
   9979 ****       -12.7500   6.2500  10.7500 Du        
   9980 ****       -12.7500   6.2500  14.0000 Du        
   9981 ****       -12.7500   6.2500  14.2500 Du        
   9982 ****       -12.7500   6.2500  14.5000 Du        
   9983 ****       -12.7500   6.2500  14.7500 Du        
   9984 ****       -12.7500   6.2500  15.0000 Du        
   9985 ****       -12.7500   6.2500  15.2500 Du        
   9986 ****       -12.7500   6.2500  15.5000 Du        
   9987 ****       -12.7500   6.2500  15.7500 Du        
   9988 ****       -12.7500   6.2500  16.0000 Du        
   9989 ****       -12.7500   6.2500  16.2500 Du        
   9990 ****       -12.7500   6.2500  16.5000 Du        
   9991 ****       -12.7500   6.2500  16.7500 Du        
   9992 ****       -12.7500   6.2500  17.0000 Du        
   9993 ****       -12.7500   6.2500  17.2500 Du        
   9994 ****       -12.7500   6.2500  17.5000 Du        
   9995 ****       -12.7500   6.2500  17.7500 Du        
   9996 ****       -12.7500   6.5000   9.0000 Du        
   9997 ****       -12.7500   6.5000   9.2500 Du        
   9998 ****       -12.7500   6.5000   9.5000 Du        
   9999 ****       -12.7500   6.5000   9.7500 Du        
  10000 ****       -12.7500   6.5000  10.0000 Du        
  10001 ****       -12.7500   6.5000  10.2500 Du        
  10002 ****       -12.7500   6.5000  10.5000 Du        
  10003 ****       -12.7500   6.5000  10.7500 Du        
  10004 ****       -12.7500   6.5000  14.0000 Du        
  10005 ****       -12.7500   6.5000  14.2500 Du        
  10006 ****       -12.7500   6.5000  14.5000 Du        
  10007 ****       -12.7500   6.5000  14.7500 Du        
  10008 ****       -12.7500   6.5000  15.0000 Du        
  10009 ****       -12.7500   6.5000  15.2500 Du        
  10010 ****       -12.7500   6.5000  15.5000 Du        
  10011 ****       -12.7500   6.5000  15.7500 Du        
  10012 ****       -12.7500   6.5000  16.0000 Du        
  10013 ****       -12.7500   6.5000  16.2500 Du        
  10014 ****       -12.7500   6.5000  16.5000 Du        
  10015 ****       -12.7500   6.5000  16.7500 Du        
  10016 ****       -12.7500   6.5000  17.0000 Du        
  10017 ****       -12.7500   6.7500   9.2500 Du        
  10018 ****       -12.7500   6.7500   9.5000 Du        
  10019 ****       -12.7500   6.7500   9.7500 Du        
  10020 ****       -12.7500   6.7500  10.0000 Du        
  10021 ****       -12.7500   6.7500  10.2500 Du        
  10022 ****       -12.7500   6.7500  10.5000 Du        
  10023 ****       -12.7500   6.7500  10.7500 Du        
  10024 ****       -12.7500   6.7500  14.0000 Du        
  10025 ****       -12.7500   6.7500  14.2500 Du        
  10026 ****       -12.7500   6.7500  14.5000 Du        
  10027 ****       -12.7500   6.7500  14.7500 Du        
  10028 ****       -12.7500   6.7500  15.0000 Du        
  10029 ****       -12.7500   6.7500  15.2500 Du        
  10030 ****       -12.7500   6.7500  15.5000 Du        
  10031 ****       -12.7500   6.7500  15.7500 Du        
  10032 ****       -12.7500   6.7500  16.0000 Du        
  10033 ****       -12.7500   6.7500  16.2500 Du        
  10034 ****       -12.7500   7.0000   9.5000 Du        
  10035 ****       -12.7500   7.0000   9.7500 Du        
  10036 ****       -12.7500   7.0000  10.0000 Du        
  10037 ****       -12.7500   7.0000  10.2500 Du        
  10038 ****       -12.7500   7.0000  10.5000 Du        
  10039 ****       -12.7500   7.0000  14.0000 Du        
  10040 ****       -12.7500   7.0000  14.2500 Du        
  10041 ****       -12.7500   7.0000  14.5000 Du        
  10042 ****       -12.7500   7.0000  14.7500 Du        
  10043 ****       -12.7500   7.0000  15.0000 Du        
  10044 ****       -12.7500   7.0000  15.2500 Du        
  10045 ****       -12.7500   7.0000  15.5000 Du        
  10046 ****       -12.7500   7.0000  15.7500 Du        
  10047 ****       -12.7500   7.2500  10.0000 Du        
  10048 ****       -12.7500   7.2500  10.2500 Du        
  10049 ****       -12.7500   7.2500  14.5000 Du        
  10050 ****       -12.7500   7.2500  14.7500 Du        
  10051 ****       -12.7500   7.2500  15.0000 Du        
  10052 ****       -12.7500   7.2500  15.2500 Du        
  10053 ****       -12.7500   7.5000  14.7500 Du        
  10054 ****       -12.7500   7.5000  15.0000 Du        
  10055 ****       -12.7500   8.2500  21.7500 Du        
  10056 ****       -12.7500   8.5000  21.7500 Du        
  10057 ****       -12.7500   8.5000  22.0000 Du        
  10058 ****       -12.7500   8.7500  21.7500 Du        
  10059 ****       -12.7500   8.7500  22.0000 Du        
  10060 ****       -12.7500   8.7500  22.2500 Du        
  10061 ****       -12.7500   9.0000  21.7500 Du        
  10062 ****       -12.7500   9.0000  22.0000 Du        
  10063 ****       -12.7500   9.0000  22.2500 Du        
  10064 ****       -12.7500   9.2500  22.0000 Du        
  10065 ****       -12.7500  10.2500  13.0000 Du        
  10066 ****       -12.7500  10.2500  13.2500 Du        
  10067 ****       -12.7500  10.5000  12.7500 Du        
  10068 ****       -12.7500  10.5000  13.0000 Du        
  10069 ****       -12.7500  10.5000  13.2500 Du        
  10070 ****       -12.7500  10.7500  12.5000 Du        
  10071 ****       -12.7500  10.7500  12.7500 Du        
  10072 ****       -12.7500  10.7500  13.0000 Du        
  10073 ****       -12.7500  10.7500  13.2500 Du        
  10074 ****       -12.7500  10.7500  13.5000 Du        
  10075 ****       -12.7500  11.0000  12.5000 Du        
  10076 ****       -12.7500  11.0000  12.7500 Du        
  10077 ****       -12.7500  11.0000  13.0000 Du        
  10078 ****       -12.7500  11.0000  13.2500 Du        
  10079 ****       -12.7500  11.0000  13.5000 Du        
  10080 ****       -12.7500  11.2500  12.5000 Du        
  10081 ****       -12.7500  11.2500  12.7500 Du        
  10082 ****       -12.7500  11.2500  13.0000 Du        
  10083 ****       -12.7500  11.2500  13.2500 Du        
  10084 ****       -12.7500  11.2500  13.5000 Du        
  10085 ****       -12.7500  11.5000  12.5000 Du        
  10086 ****       -12.7500  11.5000  12.7500 Du        
  10087 ****       -12.7500  11.5000  13.0000 Du        
  10088 ****       -12.7500  11.5000  13.2500 Du        
  10089 ****       -12.7500  11.5000  13.5000 Du        
  10090 ****       -12.7500  11.5000  13.7500 Du        
  10091 ****       -12.7500  11.7500  12.2500 Du        
  10092 ****       -12.7500  11.7500  12.5000 Du        
  10093 ****       -12.7500  11.7500  12.7500 Du        
  10094 ****       -12.7500  11.7500  13.0000 Du        
  10095 ****       -12.7500  11.7500  13.2500 Du        
  10096 ****       -12.7500  11.7500  13.5000 Du        
  10097 ****       -12.7500  11.7500  13.7500 Du        
  10098 ****       -12.7500  12.0000  12.0000 Du        
  10099 ****       -12.7500  12.0000  12.2500 Du        
  10100 ****       -12.7500  12.0000  12.5000 Du        
  10101 ****       -12.7500  12.0000  12.7500 Du        
  10102 ****       -12.7500  12.0000  13.0000 Du        
  10103 ****       -12.7500  12.0000  13.2500 Du        
  10104 ****       -12.7500  12.0000  13.5000 Du        
  10105 ****       -12.7500  12.0000  13.7500 Du        
  10106 ****       -12.7500  12.0000  14.0000 Du        
  10107 ****       -12.7500  12.2500  12.0000 Du        
  10108 ****       -12.7500  12.2500  12.2500 Du        
  10109 ****       -12.7500  12.2500  12.5000 Du        
  10110 ****       -12.7500  12.2500  12.7500 Du        
  10111 ****       -12.7500  12.2500  13.0000 Du        
  10112 ****       -12.7500  12.2500  13.2500 Du        
  10113 ****       -12.7500  12.2500  13.5000 Du        
  10114 ****       -12.7500  12.2500  13.7500 Du        
  10115 ****       -12.7500  12.2500  14.0000 Du        
  10116 ****       -12.7500  12.2500  25.0000 Du        
  10117 ****       -12.7500  12.2500  25.2500 Du        
  10118 ****       -12.7500  12.2500  25.5000 Du        
  10119 ****       -12.7500  12.2500  25.7500 Du        
  10120 ****       -12.7500  12.2500  26.0000 Du        
  10121 ****       -12.7500  12.2500  26.2500 Du        
  10122 ****       -12.7500  12.2500  26.5000 Du        
  10123 ****       -12.7500  12.2500  26.7500 Du        
  10124 ****       -12.7500  12.2500  27.0000 Du        
  10125 ****       -12.7500  12.2500  27.2500 Du        
  10126 ****       -12.7500  12.5000  12.0000 Du        
  10127 ****       -12.7500  12.5000  12.2500 Du        
  10128 ****       -12.7500  12.5000  12.5000 Du        
  10129 ****       -12.7500  12.5000  12.7500 Du        
  10130 ****       -12.7500  12.5000  13.0000 Du        
  10131 ****       -12.7500  12.5000  13.2500 Du        
  10132 ****       -12.7500  12.5000  13.5000 Du        
  10133 ****       -12.7500  12.5000  13.7500 Du        
  10134 ****       -12.7500  12.5000  14.0000 Du        
  10135 ****       -12.7500  12.5000  14.2500 Du        
  10136 ****       -12.7500  12.5000  24.5000 Du        
  10137 ****       -12.7500  12.5000  24.7500 Du        
  10138 ****       -12.7500  12.5000  25.0000 Du        
  10139 ****       -12.7500  12.5000  25.2500 Du        
  10140 ****       -12.7500  12.5000  25.5000 Du        
  10141 ****       -12.7500  12.5000  25.7500 Du        
  10142 ****       -12.7500  12.5000  26.0000 Du        
  10143 ****       -12.7500  12.5000  26.2500 Du        
  10144 ****       -12.7500  12.5000  26.5000 Du        
  10145 ****       -12.7500  12.5000  26.7500 Du        
  10146 ****       -12.7500  12.5000  27.0000 Du        
  10147 ****       -12.7500  12.5000  27.2500 Du        
  10148 ****       -12.7500  12.5000  27.5000 Du        
  10149 ****       -12.7500  12.5000  27.7500 Du        
  10150 ****       -12.7500  12.5000  28.0000 Du        
  10151 ****       -12.7500  12.5000  28.2500 Du        
  10152 ****       -12.7500  12.7500  12.0000 Du        
  10153 ****       -12.7500  12.7500  12.2500 Du        
  10154 ****       -12.7500  12.7500  12.5000 Du        
  10155 ****       -12.7500  12.7500  12.7500 Du        
  10156 ****       -12.7500  12.7500  13.0000 Du        
  10157 ****       -12.7500  12.7500  13.2500 Du        
  10158 ****       -12.7500  12.7500  13.5000 Du        
  10159 ****       -12.7500  12.7500  13.7500 Du        
  10160 ****       -12.7500  12.7500  14.0000 Du        
  10161 ****       -12.7500  12.7500  14.2500 Du        
  10162 ****       -12.7500  12.7500  24.5000 Du        
  10163 ****       -12.7500  12.7500  24.7500 Du        
  10164 ****       -12.7500  12.7500  25.0000 Du        
  10165 ****       -12.7500  12.7500  25.2500 Du        
  10166 ****       -12.7500  12.7500  25.5000 Du        
  10167 ****       -12.7500  12.7500  25.7500 Du        
  10168 ****       -12.7500  12.7500  26.0000 Du        
  10169 ****       -12.7500  12.7500  26.2500 Du        
  10170 ****       -12.7500  12.7500  26.5000 Du        
  10171 ****       -12.7500  12.7500  26.7500 Du        
  10172 ****       -12.7500  12.7500  27.0000 Du        
  10173 ****       -12.7500  12.7500  27.2500 Du        
  10174 ****       -12.7500  12.7500  27.5000 Du        
  10175 ****       -12.7500  12.7500  27.7500 Du        
  10176 ****       -12.7500  12.7500  28.0000 Du        
  10177 ****       -12.7500  12.7500  28.2500 Du        
  10178 ****       -12.7500  13.0000  12.0000 Du        
  10179 ****       -12.7500  13.0000  12.2500 Du        
  10180 ****       -12.7500  13.0000  12.5000 Du        
  10181 ****       -12.7500  13.0000  12.7500 Du        
  10182 ****       -12.7500  13.0000  13.0000 Du        
  10183 ****       -12.7500  13.0000  13.2500 Du        
  10184 ****       -12.7500  13.0000  13.5000 Du        
  10185 ****       -12.7500  13.0000  13.7500 Du        
  10186 ****       -12.7500  13.0000  14.0000 Du        
  10187 ****       -12.7500  13.0000  24.2500 Du        
  10188 ****       -12.7500  13.0000  24.5000 Du        
  10189 ****       -12.7500  13.0000  24.7500 Du        
  10190 ****       -12.7500  13.0000  25.0000 Du        
  10191 ****       -12.7500  13.0000  25.2500 Du        
  10192 ****       -12.7500  13.0000  25.5000 Du        
  10193 ****       -12.7500  13.0000  25.7500 Du        
  10194 ****       -12.7500  13.0000  26.0000 Du        
  10195 ****       -12.7500  13.0000  26.2500 Du        
  10196 ****       -12.7500  13.0000  26.5000 Du        
  10197 ****       -12.7500  13.0000  26.7500 Du        
  10198 ****       -12.7500  13.0000  27.0000 Du        
  10199 ****       -12.7500  13.0000  27.2500 Du        
  10200 ****       -12.7500  13.0000  27.5000 Du        
  10201 ****       -12.7500  13.0000  27.7500 Du        
  10202 ****       -12.7500  13.0000  28.0000 Du        
  10203 ****       -12.7500  13.2500  12.5000 Du        
  10204 ****       -12.7500  13.2500  12.7500 Du        
  10205 ****       -12.7500  13.2500  13.0000 Du        
  10206 ****       -12.7500  13.2500  13.2500 Du        
  10207 ****       -12.7500  13.2500  13.5000 Du        
  10208 ****       -12.7500  13.2500  24.2500 Du        
  10209 ****       -12.7500  13.2500  24.5000 Du        
  10210 ****       -12.7500  13.2500  24.7500 Du        
  10211 ****       -12.7500  13.2500  25.0000 Du        
  10212 ****       -12.7500  13.2500  25.2500 Du        
  10213 ****       -12.7500  13.2500  25.5000 Du        
  10214 ****       -12.7500  13.2500  25.7500 Du        
  10215 ****       -12.7500  13.2500  26.0000 Du        
  10216 ****       -12.7500  13.2500  26.2500 Du        
  10217 ****       -12.7500  13.2500  26.5000 Du        
  10218 ****       -12.7500  13.2500  26.7500 Du        
  10219 ****       -12.7500  13.2500  27.0000 Du        
  10220 ****       -12.7500  13.2500  27.2500 Du        
  10221 ****       -12.7500  13.2500  27.5000 Du        
  10222 ****       -12.7500  13.2500  27.7500 Du        
  10223 ****       -12.7500  13.2500  28.0000 Du        
  10224 ****       -12.7500  13.5000  24.2500 Du        
  10225 ****       -12.7500  13.5000  24.5000 Du        
  10226 ****       -12.7500  13.5000  24.7500 Du        
  10227 ****       -12.7500  13.5000  25.0000 Du        
  10228 ****       -12.7500  13.5000  27.0000 Du        
  10229 ****       -12.7500  13.5000  27.2500 Du        
  10230 ****       -12.5000 -15.0000  26.7500 Du        
  10231 ****       -12.5000 -15.0000  27.0000 Du        
  10232 ****       -12.5000 -15.0000  27.2500 Du        
  10233 ****       -12.5000 -14.7500  27.0000 Du        
  10234 ****       -12.5000 -14.7500  27.2500 Du        
  10235 ****       -12.5000 -14.5000  27.2500 Du        
  10236 ****       -12.5000 -14.2500  27.2500 Du        
  10237 ****       -12.5000   1.2500  20.0000 Du        
  10238 ****       -12.5000   1.2500  20.2500 Du        
  10239 ****       -12.5000   1.2500  20.5000 Du        
  10240 ****       -12.5000   1.5000  19.5000 Du        
  10241 ****       -12.5000   1.5000  19.7500 Du        
  10242 ****       -12.5000   1.5000  20.0000 Du        
  10243 ****       -12.5000   1.5000  20.2500 Du        
  10244 ****       -12.5000   1.7500  19.0000 Du        
  10245 ****       -12.5000   1.7500  19.2500 Du        
  10246 ****       -12.5000   1.7500  19.5000 Du        
  10247 ****       -12.5000   1.7500  19.7500 Du        
  10248 ****       -12.5000   1.7500  20.0000 Du        
  10249 ****       -12.5000   1.7500  20.2500 Du        
  10250 ****       -12.5000   1.7500  20.5000 Du        
  10251 ****       -12.5000   2.0000  19.0000 Du        
  10252 ****       -12.5000   2.0000  19.2500 Du        
  10253 ****       -12.5000   2.0000  19.5000 Du        
  10254 ****       -12.5000   2.0000  19.7500 Du        
  10255 ****       -12.5000   2.0000  20.0000 Du        
  10256 ****       -12.5000   2.0000  20.2500 Du        
  10257 ****       -12.5000   2.2500  18.7500 Du        
  10258 ****       -12.5000   2.2500  19.0000 Du        
  10259 ****       -12.5000   2.2500  19.2500 Du        
  10260 ****       -12.5000   2.2500  19.5000 Du        
  10261 ****       -12.5000   2.2500  19.7500 Du        
  10262 ****       -12.5000   2.2500  20.0000 Du        
  10263 ****       -12.5000   2.2500  20.2500 Du        
  10264 ****       -12.5000   2.5000  18.5000 Du        
  10265 ****       -12.5000   2.5000  18.7500 Du        
  10266 ****       -12.5000   2.5000  19.0000 Du        
  10267 ****       -12.5000   2.5000  19.2500 Du        
  10268 ****       -12.5000   2.5000  19.5000 Du        
  10269 ****       -12.5000   2.7500  17.0000 Du        
  10270 ****       -12.5000   2.7500  17.2500 Du        
  10271 ****       -12.5000   2.7500  17.5000 Du        
  10272 ****       -12.5000   2.7500  17.7500 Du        
  10273 ****       -12.5000   2.7500  18.0000 Du        
  10274 ****       -12.5000   2.7500  18.2500 Du        
  10275 ****       -12.5000   2.7500  18.5000 Du        
  10276 ****       -12.5000   2.7500  18.7500 Du        
  10277 ****       -12.5000   2.7500  19.0000 Du        
  10278 ****       -12.5000   2.7500  19.2500 Du        
  10279 ****       -12.5000   3.0000  16.7500 Du        
  10280 ****       -12.5000   3.0000  17.0000 Du        
  10281 ****       -12.5000   3.0000  17.2500 Du        
  10282 ****       -12.5000   3.0000  17.5000 Du        
  10283 ****       -12.5000   3.0000  17.7500 Du        
  10284 ****       -12.5000   3.0000  18.0000 Du        
  10285 ****       -12.5000   3.0000  18.2500 Du        
  10286 ****       -12.5000   3.0000  18.5000 Du        
  10287 ****       -12.5000   3.0000  18.7500 Du        
  10288 ****       -12.5000   3.0000  19.0000 Du        
  10289 ****       -12.5000   3.0000  19.2500 Du        
  10290 ****       -12.5000   3.2500  16.5000 Du        
  10291 ****       -12.5000   3.2500  16.7500 Du        
  10292 ****       -12.5000   3.2500  17.0000 Du        
  10293 ****       -12.5000   3.2500  17.2500 Du        
  10294 ****       -12.5000   3.2500  17.5000 Du        
  10295 ****       -12.5000   3.2500  17.7500 Du        
  10296 ****       -12.5000   3.2500  18.0000 Du        
  10297 ****       -12.5000   3.2500  18.2500 Du        
  10298 ****       -12.5000   3.2500  18.5000 Du        
  10299 ****       -12.5000   3.2500  18.7500 Du        
  10300 ****       -12.5000   3.5000  16.5000 Du        
  10301 ****       -12.5000   3.5000  16.7500 Du        
  10302 ****       -12.5000   3.5000  17.0000 Du        
  10303 ****       -12.5000   3.5000  17.2500 Du        
  10304 ****       -12.5000   3.5000  17.5000 Du        
  10305 ****       -12.5000   3.5000  17.7500 Du        
  10306 ****       -12.5000   3.5000  18.0000 Du        
  10307 ****       -12.5000   3.5000  18.2500 Du        
  10308 ****       -12.5000   3.7500  16.5000 Du        
  10309 ****       -12.5000   3.7500  16.7500 Du        
  10310 ****       -12.5000   3.7500  17.0000 Du        
  10311 ****       -12.5000   3.7500  17.2500 Du        
  10312 ****       -12.5000   3.7500  17.5000 Du        
  10313 ****       -12.5000   3.7500  17.7500 Du        
  10314 ****       -12.5000   3.7500  18.0000 Du        
  10315 ****       -12.5000   4.0000  16.2500 Du        
  10316 ****       -12.5000   4.0000  16.5000 Du        
  10317 ****       -12.5000   4.0000  16.7500 Du        
  10318 ****       -12.5000   4.0000  17.0000 Du        
  10319 ****       -12.5000   4.0000  17.2500 Du        
  10320 ****       -12.5000   4.0000  17.5000 Du        
  10321 ****       -12.5000   4.0000  17.7500 Du        
  10322 ****       -12.5000   4.0000  18.0000 Du        
  10323 ****       -12.5000   4.2500  16.2500 Du        
  10324 ****       -12.5000   4.2500  16.5000 Du        
  10325 ****       -12.5000   4.2500  16.7500 Du        
  10326 ****       -12.5000   4.2500  17.0000 Du        
  10327 ****       -12.5000   4.2500  17.2500 Du        
  10328 ****       -12.5000   4.2500  17.5000 Du        
  10329 ****       -12.5000   4.2500  17.7500 Du        
  10330 ****       -12.5000   4.5000  16.0000 Du        
  10331 ****       -12.5000   4.5000  16.2500 Du        
  10332 ****       -12.5000   4.5000  16.5000 Du        
  10333 ****       -12.5000   4.5000  16.7500 Du        
  10334 ****       -12.5000   4.5000  17.0000 Du        
  10335 ****       -12.5000   4.5000  17.2500 Du        
  10336 ****       -12.5000   4.7500  16.0000 Du        
  10337 ****       -12.5000   4.7500  16.2500 Du        
  10338 ****       -12.5000   4.7500  16.5000 Du        
  10339 ****       -12.5000   4.7500  16.7500 Du        
  10340 ****       -12.5000   4.7500  17.0000 Du        
  10341 ****       -12.5000   4.7500  17.2500 Du        
  10342 ****       -12.5000   5.0000   9.0000 Du        
  10343 ****       -12.5000   5.0000  15.7500 Du        
  10344 ****       -12.5000   5.0000  16.0000 Du        
  10345 ****       -12.5000   5.0000  16.2500 Du        
  10346 ****       -12.5000   5.0000  16.5000 Du        
  10347 ****       -12.5000   5.0000  16.7500 Du        
  10348 ****       -12.5000   5.0000  17.0000 Du        
  10349 ****       -12.5000   5.0000  17.2500 Du        
  10350 ****       -12.5000   5.2500   9.0000 Du        
  10351 ****       -12.5000   5.2500   9.2500 Du        
  10352 ****       -12.5000   5.2500  15.2500 Du        
  10353 ****       -12.5000   5.2500  15.5000 Du        
  10354 ****       -12.5000   5.2500  15.7500 Du        
  10355 ****       -12.5000   5.2500  16.0000 Du        
  10356 ****       -12.5000   5.2500  16.2500 Du        
  10357 ****       -12.5000   5.2500  16.5000 Du        
  10358 ****       -12.5000   5.2500  16.7500 Du        
  10359 ****       -12.5000   5.2500  17.0000 Du        
  10360 ****       -12.5000   5.2500  17.2500 Du        
  10361 ****       -12.5000   5.5000   9.0000 Du        
  10362 ****       -12.5000   5.5000   9.2500 Du        
  10363 ****       -12.5000   5.5000   9.5000 Du        
  10364 ****       -12.5000   5.5000   9.7500 Du        
  10365 ****       -12.5000   5.5000  15.2500 Du        
  10366 ****       -12.5000   5.5000  15.5000 Du        
  10367 ****       -12.5000   5.5000  15.7500 Du        
  10368 ****       -12.5000   5.5000  16.0000 Du        
  10369 ****       -12.5000   5.5000  16.2500 Du        
  10370 ****       -12.5000   5.5000  16.5000 Du        
  10371 ****       -12.5000   5.5000  16.7500 Du        
  10372 ****       -12.5000   5.5000  17.0000 Du        
  10373 ****       -12.5000   5.5000  17.2500 Du        
  10374 ****       -12.5000   5.7500   9.0000 Du        
  10375 ****       -12.5000   5.7500   9.2500 Du        
  10376 ****       -12.5000   5.7500   9.5000 Du        
  10377 ****       -12.5000   5.7500   9.7500 Du        
  10378 ****       -12.5000   5.7500  10.0000 Du        
  10379 ****       -12.5000   5.7500  10.2500 Du        
  10380 ****       -12.5000   5.7500  15.0000 Du        
  10381 ****       -12.5000   5.7500  15.2500 Du        
  10382 ****       -12.5000   5.7500  15.5000 Du        
  10383 ****       -12.5000   5.7500  15.7500 Du        
  10384 ****       -12.5000   5.7500  16.0000 Du        
  10385 ****       -12.5000   5.7500  16.2500 Du        
  10386 ****       -12.5000   5.7500  16.5000 Du        
  10387 ****       -12.5000   5.7500  16.7500 Du        
  10388 ****       -12.5000   5.7500  17.0000 Du        
  10389 ****       -12.5000   5.7500  17.2500 Du        
  10390 ****       -12.5000   6.0000   9.0000 Du        
  10391 ****       -12.5000   6.0000   9.2500 Du        
  10392 ****       -12.5000   6.0000   9.5000 Du        
  10393 ****       -12.5000   6.0000   9.7500 Du        
  10394 ****       -12.5000   6.0000  10.0000 Du        
  10395 ****       -12.5000   6.0000  10.2500 Du        
  10396 ****       -12.5000   6.0000  10.5000 Du        
  10397 ****       -12.5000   6.0000  14.7500 Du        
  10398 ****       -12.5000   6.0000  15.0000 Du        
  10399 ****       -12.5000   6.0000  15.2500 Du        
  10400 ****       -12.5000   6.0000  15.5000 Du        
  10401 ****       -12.5000   6.0000  15.7500 Du        
  10402 ****       -12.5000   6.0000  16.0000 Du        
  10403 ****       -12.5000   6.0000  16.2500 Du        
  10404 ****       -12.5000   6.0000  16.5000 Du        
  10405 ****       -12.5000   6.0000  16.7500 Du        
  10406 ****       -12.5000   6.0000  17.0000 Du        
  10407 ****       -12.5000   6.0000  17.2500 Du        
  10408 ****       -12.5000   6.0000  17.5000 Du        
  10409 ****       -12.5000   6.2500   9.0000 Du        
  10410 ****       -12.5000   6.2500   9.2500 Du        
  10411 ****       -12.5000   6.2500   9.5000 Du        
  10412 ****       -12.5000   6.2500   9.7500 Du        
  10413 ****       -12.5000   6.2500  10.0000 Du        
  10414 ****       -12.5000   6.2500  10.2500 Du        
  10415 ****       -12.5000   6.2500  10.5000 Du        
  10416 ****       -12.5000   6.2500  14.5000 Du        
  10417 ****       -12.5000   6.2500  14.7500 Du        
  10418 ****       -12.5000   6.2500  15.0000 Du        
  10419 ****       -12.5000   6.2500  15.2500 Du        
  10420 ****       -12.5000   6.2500  15.5000 Du        
  10421 ****       -12.5000   6.2500  15.7500 Du        
  10422 ****       -12.5000   6.2500  16.0000 Du        
  10423 ****       -12.5000   6.2500  16.2500 Du        
  10424 ****       -12.5000   6.2500  16.5000 Du        
  10425 ****       -12.5000   6.2500  16.7500 Du        
  10426 ****       -12.5000   6.2500  17.0000 Du        
  10427 ****       -12.5000   6.2500  17.2500 Du        
  10428 ****       -12.5000   6.2500  17.5000 Du        
  10429 ****       -12.5000   6.5000   9.2500 Du        
  10430 ****       -12.5000   6.5000   9.5000 Du        
  10431 ****       -12.5000   6.5000   9.7500 Du        
  10432 ****       -12.5000   6.5000  10.0000 Du        
  10433 ****       -12.5000   6.5000  10.2500 Du        
  10434 ****       -12.5000   6.5000  14.5000 Du        
  10435 ****       -12.5000   6.5000  14.7500 Du        
  10436 ****       -12.5000   6.5000  15.0000 Du        
  10437 ****       -12.5000   6.5000  15.2500 Du        
  10438 ****       -12.5000   6.5000  15.5000 Du        
  10439 ****       -12.5000   6.5000  15.7500 Du        
  10440 ****       -12.5000   6.5000  16.0000 Du        
  10441 ****       -12.5000   6.5000  16.2500 Du        
  10442 ****       -12.5000   6.5000  16.5000 Du        
  10443 ****       -12.5000   6.5000  16.7500 Du        
  10444 ****       -12.5000   6.5000  17.0000 Du        
  10445 ****       -12.5000   6.5000  17.2500 Du        
  10446 ****       -12.5000   6.7500   9.5000 Du        
  10447 ****       -12.5000   6.7500   9.7500 Du        
  10448 ****       -12.5000   6.7500  10.0000 Du        
  10449 ****       -12.5000   6.7500  10.2500 Du        
  10450 ****       -12.5000   6.7500  14.5000 Du        
  10451 ****       -12.5000   6.7500  14.7500 Du        
  10452 ****       -12.5000   6.7500  15.0000 Du        
  10453 ****       -12.5000   6.7500  15.2500 Du        
  10454 ****       -12.5000   6.7500  15.5000 Du        
  10455 ****       -12.5000   6.7500  15.7500 Du        
  10456 ****       -12.5000   6.7500  16.0000 Du        
  10457 ****       -12.5000   6.7500  16.2500 Du        
  10458 ****       -12.5000   6.7500  16.5000 Du        
  10459 ****       -12.5000   7.0000   9.5000 Du        
  10460 ****       -12.5000   7.0000   9.7500 Du        
  10461 ****       -12.5000   7.0000  10.0000 Du        
  10462 ****       -12.5000   7.0000  14.5000 Du        
  10463 ****       -12.5000   7.0000  14.7500 Du        
  10464 ****       -12.5000   7.0000  15.0000 Du        
  10465 ****       -12.5000   7.0000  15.2500 Du        
  10466 ****       -12.5000   7.0000  15.5000 Du        
  10467 ****       -12.5000   7.0000  15.7500 Du        
  10468 ****       -12.5000   7.0000  16.0000 Du        
  10469 ****       -12.5000   7.2500  14.7500 Du        
  10470 ****       -12.5000   7.2500  15.0000 Du        
  10471 ****       -12.5000   7.2500  15.2500 Du        
  10472 ****       -12.5000   7.2500  15.5000 Du        
  10473 ****       -12.5000   7.5000  20.7500 Du        
  10474 ****       -12.5000   7.5000  21.0000 Du        
  10475 ****       -12.5000   7.5000  21.2500 Du        
  10476 ****       -12.5000   7.5000  21.5000 Du        
  10477 ****       -12.5000   7.7500  20.7500 Du        
  10478 ****       -12.5000   7.7500  21.0000 Du        
  10479 ****       -12.5000   7.7500  21.2500 Du        
  10480 ****       -12.5000   7.7500  21.5000 Du        
  10481 ****       -12.5000   7.7500  21.7500 Du        
  10482 ****       -12.5000   8.0000  21.0000 Du        
  10483 ****       -12.5000   8.0000  21.2500 Du        
  10484 ****       -12.5000   8.0000  21.5000 Du        
  10485 ****       -12.5000   8.0000  21.7500 Du        
  10486 ****       -12.5000   8.2500  21.2500 Du        
  10487 ****       -12.5000   8.2500  21.5000 Du        
  10488 ****       -12.5000   8.2500  21.7500 Du        
  10489 ****       -12.5000   8.2500  22.0000 Du        
  10490 ****       -12.5000   8.5000  21.5000 Du        
  10491 ****       -12.5000   8.5000  21.7500 Du        
  10492 ****       -12.5000   8.5000  22.0000 Du        
  10493 ****       -12.5000   8.5000  22.2500 Du        
  10494 ****       -12.5000   8.7500  21.5000 Du        
  10495 ****       -12.5000   8.7500  21.7500 Du        
  10496 ****       -12.5000   8.7500  22.0000 Du        
  10497 ****       -12.5000   8.7500  22.2500 Du        
  10498 ****       -12.5000   9.0000  21.7500 Du        
  10499 ****       -12.5000   9.0000  22.0000 Du        
  10500 ****       -12.5000  10.2500  13.0000 Du        
  10501 ****       -12.5000  10.2500  13.2500 Du        
  10502 ****       -12.5000  10.2500  13.5000 Du        
  10503 ****       -12.5000  10.5000  12.7500 Du        
  10504 ****       -12.5000  10.5000  13.0000 Du        
  10505 ****       -12.5000  10.5000  13.2500 Du        
  10506 ****       -12.5000  10.5000  13.5000 Du        
  10507 ****       -12.5000  10.7500  12.5000 Du        
  10508 ****       -12.5000  10.7500  12.7500 Du        
  10509 ****       -12.5000  10.7500  13.0000 Du        
  10510 ****       -12.5000  10.7500  13.2500 Du        
  10511 ****       -12.5000  10.7500  13.5000 Du        
  10512 ****       -12.5000  11.0000  12.2500 Du        
  10513 ****       -12.5000  11.0000  12.5000 Du        
  10514 ****       -12.5000  11.0000  12.7500 Du        
  10515 ****       -12.5000  11.0000  13.0000 Du        
  10516 ****       -12.5000  11.0000  13.2500 Du        
  10517 ****       -12.5000  11.0000  13.5000 Du        
  10518 ****       -12.5000  11.0000  13.7500 Du        
  10519 ****       -12.5000  11.2500  12.2500 Du        
  10520 ****       -12.5000  11.2500  12.5000 Du        
  10521 ****       -12.5000  11.2500  12.7500 Du        
  10522 ****       -12.5000  11.2500  13.0000 Du        
  10523 ****       -12.5000  11.2500  13.2500 Du        
  10524 ****       -12.5000  11.2500  13.5000 Du        
  10525 ****       -12.5000  11.2500  13.7500 Du        
  10526 ****       -12.5000  11.5000  12.2500 Du        
  10527 ****       -12.5000  11.5000  12.5000 Du        
  10528 ****       -12.5000  11.5000  12.7500 Du        
  10529 ****       -12.5000  11.5000  13.0000 Du        
  10530 ****       -12.5000  11.5000  13.2500 Du        
  10531 ****       -12.5000  11.5000  13.5000 Du        
  10532 ****       -12.5000  11.5000  13.7500 Du        
  10533 ****       -12.5000  11.5000  14.0000 Du        
  10534 ****       -12.5000  11.7500  12.0000 Du        
  10535 ****       -12.5000  11.7500  12.2500 Du        
  10536 ****       -12.5000  11.7500  12.5000 Du        
  10537 ****       -12.5000  11.7500  12.7500 Du        
  10538 ****       -12.5000  11.7500  13.0000 Du        
  10539 ****       -12.5000  11.7500  13.2500 Du        
  10540 ****       -12.5000  11.7500  13.5000 Du        
  10541 ****       -12.5000  11.7500  13.7500 Du        
  10542 ****       -12.5000  11.7500  14.0000 Du        
  10543 ****       -12.5000  12.0000  11.7500 Du        
  10544 ****       -12.5000  12.0000  12.0000 Du        
  10545 ****       -12.5000  12.0000  12.2500 Du        
  10546 ****       -12.5000  12.0000  12.5000 Du        
  10547 ****       -12.5000  12.0000  12.7500 Du        
  10548 ****       -12.5000  12.0000  13.0000 Du        
  10549 ****       -12.5000  12.0000  13.2500 Du        
  10550 ****       -12.5000  12.0000  13.5000 Du        
  10551 ****       -12.5000  12.0000  13.7500 Du        
  10552 ****       -12.5000  12.0000  14.0000 Du        
  10553 ****       -12.5000  12.0000  14.2500 Du        
  10554 ****       -12.5000  12.2500  11.7500 Du        
  10555 ****       -12.5000  12.2500  12.0000 Du        
  10556 ****       -12.5000  12.2500  12.2500 Du        
  10557 ****       -12.5000  12.2500  12.5000 Du        
  10558 ****       -12.5000  12.2500  12.7500 Du        
  10559 ****       -12.5000  12.2500  13.0000 Du        
  10560 ****       -12.5000  12.2500  13.2500 Du        
  10561 ****       -12.5000  12.2500  13.5000 Du        
  10562 ****       -12.5000  12.2500  13.7500 Du        
  10563 ****       -12.5000  12.2500  14.0000 Du        
  10564 ****       -12.5000  12.2500  14.2500 Du        
  10565 ****       -12.5000  12.2500  28.0000 Du        
  10566 ****       -12.5000  12.2500  28.2500 Du        
  10567 ****       -12.5000  12.5000  11.7500 Du        
  10568 ****       -12.5000  12.5000  12.0000 Du        
  10569 ****       -12.5000  12.5000  12.2500 Du        
  10570 ****       -12.5000  12.5000  12.5000 Du        
  10571 ****       -12.5000  12.5000  12.7500 Du        
  10572 ****       -12.5000  12.5000  13.0000 Du        
  10573 ****       -12.5000  12.5000  13.2500 Du        
  10574 ****       -12.5000  12.5000  13.5000 Du        
  10575 ****       -12.5000  12.5000  13.7500 Du        
  10576 ****       -12.5000  12.5000  14.0000 Du        
  10577 ****       -12.5000  12.5000  14.2500 Du        
  10578 ****       -12.5000  12.5000  25.0000 Du        
  10579 ****       -12.5000  12.5000  25.2500 Du        
  10580 ****       -12.5000  12.5000  25.5000 Du        
  10581 ****       -12.5000  12.5000  25.7500 Du        
  10582 ****       -12.5000  12.5000  26.0000 Du        
  10583 ****       -12.5000  12.5000  26.2500 Du        
  10584 ****       -12.5000  12.5000  26.5000 Du        
  10585 ****       -12.5000  12.5000  26.7500 Du        
  10586 ****       -12.5000  12.5000  27.0000 Du        
  10587 ****       -12.5000  12.5000  27.2500 Du        
  10588 ****       -12.5000  12.5000  27.5000 Du        
  10589 ****       -12.5000  12.5000  27.7500 Du        
  10590 ****       -12.5000  12.5000  28.0000 Du        
  10591 ****       -12.5000  12.5000  28.2500 Du        
  10592 ****       -12.5000  12.7500  11.7500 Du        
  10593 ****       -12.5000  12.7500  12.0000 Du        
  10594 ****       -12.5000  12.7500  12.2500 Du        
  10595 ****       -12.5000  12.7500  12.5000 Du        
  10596 ****       -12.5000  12.7500  12.7500 Du        
  10597 ****       -12.5000  12.7500  13.0000 Du        
  10598 ****       -12.5000  12.7500  13.2500 Du        
  10599 ****       -12.5000  12.7500  13.5000 Du        
  10600 ****       -12.5000  12.7500  13.7500 Du        
  10601 ****       -12.5000  12.7500  14.0000 Du        
  10602 ****       -12.5000  12.7500  14.2500 Du        
  10603 ****       -12.5000  12.7500  24.7500 Du        
  10604 ****       -12.5000  12.7500  25.0000 Du        
  10605 ****       -12.5000  12.7500  25.2500 Du        
  10606 ****       -12.5000  12.7500  25.5000 Du        
  10607 ****       -12.5000  12.7500  25.7500 Du        
  10608 ****       -12.5000  12.7500  26.0000 Du        
  10609 ****       -12.5000  12.7500  26.2500 Du        
  10610 ****       -12.5000  12.7500  26.5000 Du        
  10611 ****       -12.5000  12.7500  26.7500 Du        
  10612 ****       -12.5000  12.7500  27.0000 Du        
  10613 ****       -12.5000  12.7500  27.2500 Du        
  10614 ****       -12.5000  12.7500  27.5000 Du        
  10615 ****       -12.5000  12.7500  27.7500 Du        
  10616 ****       -12.5000  12.7500  28.0000 Du        
  10617 ****       -12.5000  12.7500  28.2500 Du        
  10618 ****       -12.5000  13.0000  12.5000 Du        
  10619 ****       -12.5000  13.0000  12.7500 Du        
  10620 ****       -12.5000  13.0000  13.0000 Du        
  10621 ****       -12.5000  13.0000  13.2500 Du        
  10622 ****       -12.5000  13.0000  13.5000 Du        
  10623 ****       -12.5000  13.0000  13.7500 Du        
  10624 ****       -12.5000  13.0000  14.0000 Du        
  10625 ****       -12.5000  13.0000  24.5000 Du        
  10626 ****       -12.5000  13.0000  24.7500 Du        
  10627 ****       -12.5000  13.0000  25.0000 Du        
  10628 ****       -12.5000  13.0000  25.2500 Du        
  10629 ****       -12.5000  13.0000  25.5000 Du        
  10630 ****       -12.5000  13.0000  25.7500 Du        
  10631 ****       -12.5000  13.0000  26.0000 Du        
  10632 ****       -12.5000  13.0000  26.2500 Du        
  10633 ****       -12.5000  13.0000  26.5000 Du        
  10634 ****       -12.5000  13.0000  26.7500 Du        
  10635 ****       -12.5000  13.0000  27.0000 Du        
  10636 ****       -12.5000  13.0000  27.2500 Du        
  10637 ****       -12.5000  13.0000  27.5000 Du        
  10638 ****       -12.5000  13.0000  27.7500 Du        
  10639 ****       -12.5000  13.0000  28.0000 Du        
  10640 ****       -12.5000  13.0000  28.2500 Du        
  10641 ****       -12.5000  13.2500  13.0000 Du        
  10642 ****       -12.5000  13.2500  13.2500 Du        
  10643 ****       -12.5000  13.2500  13.5000 Du        
  10644 ****       -12.5000  13.2500  24.5000 Du        
  10645 ****       -12.5000  13.2500  24.7500 Du        
  10646 ****       -12.5000  13.2500  25.0000 Du        
  10647 ****       -12.5000  13.2500  25.2500 Du        
  10648 ****       -12.5000  13.2500  25.5000 Du        
  10649 ****       -12.5000  13.2500  25.7500 Du        
  10650 ****       -12.5000  13.2500  26.0000 Du        
  10651 ****       -12.5000  13.2500  26.2500 Du        
  10652 ****       -12.5000  13.2500  26.5000 Du        
  10653 ****       -12.5000  13.2500  26.7500 Du        
  10654 ****       -12.5000  13.2500  27.0000 Du        
  10655 ****       -12.5000  13.2500  27.2500 Du        
  10656 ****       -12.5000  13.2500  27.5000 Du        
  10657 ****       -12.5000  13.2500  27.7500 Du        
  10658 ****       -12.5000  13.2500  28.0000 Du        
  10659 ****       -12.5000  13.5000  24.5000 Du        
  10660 ****       -12.5000  13.5000  24.7500 Du        
  10661 ****       -12.5000  13.5000  25.0000 Du        
  10662 ****       -12.5000  13.5000  25.2500 Du        
  10663 ****       -12.5000  13.5000  25.5000 Du        
  10664 ****       -12.5000  13.5000  25.7500 Du        
  10665 ****       -12.5000  13.5000  26.0000 Du        
  10666 ****       -12.5000  13.5000  26.2500 Du        
  10667 ****       -12.5000  13.5000  26.5000 Du        
  10668 ****       -12.5000  13.5000  26.7500 Du        
  10669 ****       -12.5000  13.5000  27.0000 Du        
  10670 ****       -12.5000  13.5000  27.2500 Du        
  10671 ****       -12.5000  13.5000  27.5000 Du        
  10672 ****       -12.5000  13.5000  27.7500 Du        
  10673 ****       -12.5000  13.5000  28.0000 Du        
  10674 ****       -12.2500 -15.2500  26.7500 Du        
  10675 ****       -12.2500 -15.2500  27.0000 Du        
  10676 ****       -12.2500 -15.2500  27.2500 Du        
  10677 ****       -12.2500 -15.0000  26.7500 Du        
  10678 ****       -12.2500 -15.0000  27.0000 Du        
  10679 ****       -12.2500 -15.0000  27.2500 Du        
  10680 ****       -12.2500 -14.7500  27.0000 Du        
  10681 ****       -12.2500 -14.7500  27.2500 Du        
  10682 ****       -12.2500   1.2500  20.2500 Du        
  10683 ****       -12.2500   1.2500  20.5000 Du        
  10684 ****       -12.2500   1.2500  20.7500 Du        
  10685 ****       -12.2500   1.5000  19.5000 Du        
  10686 ****       -12.2500   1.5000  19.7500 Du        
  10687 ****       -12.2500   1.5000  20.0000 Du        
  10688 ****       -12.2500   1.5000  20.2500 Du        
  10689 ****       -12.2500   1.5000  20.5000 Du        
  10690 ****       -12.2500   1.7500  18.7500 Du        
  10691 ****       -12.2500   1.7500  19.0000 Du        
  10692 ****       -12.2500   1.7500  19.2500 Du        
  10693 ****       -12.2500   1.7500  19.5000 Du        
  10694 ****       -12.2500   1.7500  19.7500 Du        
  10695 ****       -12.2500   1.7500  20.0000 Du        
  10696 ****       -12.2500   1.7500  20.2500 Du        
  10697 ****       -12.2500   1.7500  20.5000 Du        
  10698 ****       -12.2500   2.0000  18.2500 Du        
  10699 ****       -12.2500   2.0000  18.5000 Du        
  10700 ****       -12.2500   2.0000  18.7500 Du        
  10701 ****       -12.2500   2.0000  19.0000 Du        
  10702 ****       -12.2500   2.0000  19.2500 Du        
  10703 ****       -12.2500   2.0000  19.5000 Du        
  10704 ****       -12.2500   2.0000  19.7500 Du        
  10705 ****       -12.2500   2.0000  20.0000 Du        
  10706 ****       -12.2500   2.0000  20.2500 Du        
  10707 ****       -12.2500   2.2500  16.7500 Du        
  10708 ****       -12.2500   2.2500  17.0000 Du        
  10709 ****       -12.2500   2.2500  17.2500 Du        
  10710 ****       -12.2500   2.2500  17.5000 Du        
  10711 ****       -12.2500   2.2500  17.7500 Du        
  10712 ****       -12.2500   2.2500  18.0000 Du        
  10713 ****       -12.2500   2.2500  18.2500 Du        
  10714 ****       -12.2500   2.2500  18.5000 Du        
  10715 ****       -12.2500   2.2500  18.7500 Du        
  10716 ****       -12.2500   2.2500  19.0000 Du        
  10717 ****       -12.2500   2.2500  19.2500 Du        
  10718 ****       -12.2500   2.2500  19.5000 Du        
  10719 ****       -12.2500   2.2500  19.7500 Du        
  10720 ****       -12.2500   2.2500  20.0000 Du        
  10721 ****       -12.2500   2.2500  20.2500 Du        
  10722 ****       -12.2500   2.5000  16.7500 Du        
  10723 ****       -12.2500   2.5000  17.0000 Du        
  10724 ****       -12.2500   2.5000  17.2500 Du        
  10725 ****       -12.2500   2.5000  17.5000 Du        
  10726 ****       -12.2500   2.5000  17.7500 Du        
  10727 ****       -12.2500   2.5000  18.0000 Du        
  10728 ****       -12.2500   2.5000  18.2500 Du        
  10729 ****       -12.2500   2.5000  18.5000 Du        
  10730 ****       -12.2500   2.5000  18.7500 Du        
  10731 ****       -12.2500   2.5000  19.0000 Du        
  10732 ****       -12.2500   2.5000  19.2500 Du        
  10733 ****       -12.2500   2.5000  19.5000 Du        
  10734 ****       -12.2500   2.5000  19.7500 Du        
  10735 ****       -12.2500   2.7500  16.7500 Du        
  10736 ****       -12.2500   2.7500  17.0000 Du        
  10737 ****       -12.2500   2.7500  17.2500 Du        
  10738 ****       -12.2500   2.7500  17.5000 Du        
  10739 ****       -12.2500   2.7500  17.7500 Du        
  10740 ****       -12.2500   2.7500  18.0000 Du        
  10741 ****       -12.2500   2.7500  18.2500 Du        
  10742 ****       -12.2500   2.7500  18.5000 Du        
  10743 ****       -12.2500   2.7500  18.7500 Du        
  10744 ****       -12.2500   2.7500  19.0000 Du        
  10745 ****       -12.2500   2.7500  19.2500 Du        
  10746 ****       -12.2500   2.7500  19.5000 Du        
  10747 ****       -12.2500   2.7500  19.7500 Du        
  10748 ****       -12.2500   3.0000  16.7500 Du        
  10749 ****       -12.2500   3.0000  17.0000 Du        
  10750 ****       -12.2500   3.0000  17.2500 Du        
  10751 ****       -12.2500   3.0000  17.5000 Du        
  10752 ****       -12.2500   3.0000  17.7500 Du        
  10753 ****       -12.2500   3.0000  18.0000 Du        
  10754 ****       -12.2500   3.0000  18.2500 Du        
  10755 ****       -12.2500   3.0000  18.5000 Du        
  10756 ****       -12.2500   3.0000  18.7500 Du        
  10757 ****       -12.2500   3.0000  19.0000 Du        
  10758 ****       -12.2500   3.0000  19.2500 Du        
  10759 ****       -12.2500   3.2500  16.7500 Du        
  10760 ****       -12.2500   3.2500  17.0000 Du        
  10761 ****       -12.2500   3.2500  17.2500 Du        
  10762 ****       -12.2500   3.2500  17.5000 Du        
  10763 ****       -12.2500   3.2500  17.7500 Du        
  10764 ****       -12.2500   3.2500  18.0000 Du        
  10765 ****       -12.2500   3.2500  18.2500 Du        
  10766 ****       -12.2500   3.5000  16.7500 Du        
  10767 ****       -12.2500   3.5000  17.0000 Du        
  10768 ****       -12.2500   3.5000  17.2500 Du        
  10769 ****       -12.2500   3.5000  17.5000 Du        
  10770 ****       -12.2500   3.5000  17.7500 Du        
  10771 ****       -12.2500   3.5000  18.0000 Du        
  10772 ****       -12.2500   3.7500  16.5000 Du        
  10773 ****       -12.2500   3.7500  16.7500 Du        
  10774 ****       -12.2500   3.7500  17.0000 Du        
  10775 ****       -12.2500   3.7500  17.2500 Du        
  10776 ****       -12.2500   3.7500  17.5000 Du        
  10777 ****       -12.2500   3.7500  17.7500 Du        
  10778 ****       -12.2500   4.0000  16.5000 Du        
  10779 ****       -12.2500   4.0000  16.7500 Du        
  10780 ****       -12.2500   4.0000  17.0000 Du        
  10781 ****       -12.2500   4.0000  17.2500 Du        
  10782 ****       -12.2500   4.0000  17.5000 Du        
  10783 ****       -12.2500   4.2500  16.2500 Du        
  10784 ****       -12.2500   4.2500  16.5000 Du        
  10785 ****       -12.2500   4.2500  16.7500 Du        
  10786 ****       -12.2500   4.2500  17.0000 Du        
  10787 ****       -12.2500   4.2500  17.2500 Du        
  10788 ****       -12.2500   4.5000  16.2500 Du        
  10789 ****       -12.2500   4.5000  16.5000 Du        
  10790 ****       -12.2500   4.5000  16.7500 Du        
  10791 ****       -12.2500   4.5000  17.0000 Du        
  10792 ****       -12.2500   4.5000  17.2500 Du        
  10793 ****       -12.2500   4.7500  16.0000 Du        
  10794 ****       -12.2500   4.7500  16.2500 Du        
  10795 ****       -12.2500   4.7500  16.5000 Du        
  10796 ****       -12.2500   4.7500  16.7500 Du        
  10797 ****       -12.2500   4.7500  17.0000 Du        
  10798 ****       -12.2500   4.7500  17.2500 Du        
  10799 ****       -12.2500   5.0000   9.0000 Du        
  10800 ****       -12.2500   5.0000  15.7500 Du        
  10801 ****       -12.2500   5.0000  16.0000 Du        
  10802 ****       -12.2500   5.0000  16.2500 Du        
  10803 ****       -12.2500   5.0000  16.5000 Du        
  10804 ****       -12.2500   5.0000  16.7500 Du        
  10805 ****       -12.2500   5.0000  17.0000 Du        
  10806 ****       -12.2500   5.2500   9.0000 Du        
  10807 ****       -12.2500   5.2500   9.2500 Du        
  10808 ****       -12.2500   5.2500   9.5000 Du        
  10809 ****       -12.2500   5.2500  15.5000 Du        
  10810 ****       -12.2500   5.2500  15.7500 Du        
  10811 ****       -12.2500   5.2500  16.0000 Du        
  10812 ****       -12.2500   5.2500  16.2500 Du        
  10813 ****       -12.2500   5.2500  16.5000 Du        
  10814 ****       -12.2500   5.2500  16.7500 Du        
  10815 ****       -12.2500   5.2500  17.0000 Du        
  10816 ****       -12.2500   5.2500  17.2500 Du        
  10817 ****       -12.2500   5.5000   9.0000 Du        
  10818 ****       -12.2500   5.5000   9.2500 Du        
  10819 ****       -12.2500   5.5000   9.5000 Du        
  10820 ****       -12.2500   5.5000   9.7500 Du        
  10821 ****       -12.2500   5.5000  15.2500 Du        
  10822 ****       -12.2500   5.5000  15.5000 Du        
  10823 ****       -12.2500   5.5000  15.7500 Du        
  10824 ****       -12.2500   5.5000  16.0000 Du        
  10825 ****       -12.2500   5.5000  16.2500 Du        
  10826 ****       -12.2500   5.5000  16.5000 Du        
  10827 ****       -12.2500   5.5000  16.7500 Du        
  10828 ****       -12.2500   5.5000  17.0000 Du        
  10829 ****       -12.2500   5.5000  17.2500 Du        
  10830 ****       -12.2500   5.7500   9.0000 Du        
  10831 ****       -12.2500   5.7500   9.2500 Du        
  10832 ****       -12.2500   5.7500   9.5000 Du        
  10833 ****       -12.2500   5.7500   9.7500 Du        
  10834 ****       -12.2500   5.7500  10.0000 Du        
  10835 ****       -12.2500   5.7500  15.2500 Du        
  10836 ****       -12.2500   5.7500  15.5000 Du        
  10837 ****       -12.2500   5.7500  15.7500 Du        
  10838 ****       -12.2500   5.7500  16.0000 Du        
  10839 ****       -12.2500   5.7500  16.2500 Du        
  10840 ****       -12.2500   5.7500  16.5000 Du        
  10841 ****       -12.2500   5.7500  16.7500 Du        
  10842 ****       -12.2500   5.7500  17.0000 Du        
  10843 ****       -12.2500   5.7500  17.2500 Du        
  10844 ****       -12.2500   6.0000   9.0000 Du        
  10845 ****       -12.2500   6.0000   9.2500 Du        
  10846 ****       -12.2500   6.0000   9.5000 Du        
  10847 ****       -12.2500   6.0000   9.7500 Du        
  10848 ****       -12.2500   6.0000  10.0000 Du        
  10849 ****       -12.2500   6.0000  10.2500 Du        
  10850 ****       -12.2500   6.0000  15.0000 Du        
  10851 ****       -12.2500   6.0000  15.2500 Du        
  10852 ****       -12.2500   6.0000  15.5000 Du        
  10853 ****       -12.2500   6.0000  15.7500 Du        
  10854 ****       -12.2500   6.0000  16.0000 Du        
  10855 ****       -12.2500   6.0000  16.2500 Du        
  10856 ****       -12.2500   6.0000  16.5000 Du        
  10857 ****       -12.2500   6.0000  16.7500 Du        
  10858 ****       -12.2500   6.0000  17.0000 Du        
  10859 ****       -12.2500   6.0000  17.2500 Du        
  10860 ****       -12.2500   6.2500   9.0000 Du        
  10861 ****       -12.2500   6.2500   9.2500 Du        
  10862 ****       -12.2500   6.2500   9.5000 Du        
  10863 ****       -12.2500   6.2500   9.7500 Du        
  10864 ****       -12.2500   6.2500  10.0000 Du        
  10865 ****       -12.2500   6.2500  15.0000 Du        
  10866 ****       -12.2500   6.2500  15.2500 Du        
  10867 ****       -12.2500   6.2500  15.5000 Du        
  10868 ****       -12.2500   6.2500  15.7500 Du        
  10869 ****       -12.2500   6.2500  16.0000 Du        
  10870 ****       -12.2500   6.2500  16.2500 Du        
  10871 ****       -12.2500   6.2500  16.5000 Du        
  10872 ****       -12.2500   6.2500  16.7500 Du        
  10873 ****       -12.2500   6.2500  17.0000 Du        
  10874 ****       -12.2500   6.2500  17.2500 Du        
  10875 ****       -12.2500   6.5000   9.2500 Du        
  10876 ****       -12.2500   6.5000   9.5000 Du        
  10877 ****       -12.2500   6.5000   9.7500 Du        
  10878 ****       -12.2500   6.5000  10.0000 Du        
  10879 ****       -12.2500   6.5000  15.0000 Du        
  10880 ****       -12.2500   6.5000  15.2500 Du        
  10881 ****       -12.2500   6.5000  15.5000 Du        
  10882 ****       -12.2500   6.5000  15.7500 Du        
  10883 ****       -12.2500   6.5000  16.0000 Du        
  10884 ****       -12.2500   6.5000  16.2500 Du        
  10885 ****       -12.2500   6.5000  16.5000 Du        
  10886 ****       -12.2500   6.5000  16.7500 Du        
  10887 ****       -12.2500   6.5000  17.0000 Du        
  10888 ****       -12.2500   6.7500   9.5000 Du        
  10889 ****       -12.2500   6.7500   9.7500 Du        
  10890 ****       -12.2500   6.7500  15.0000 Du        
  10891 ****       -12.2500   6.7500  15.2500 Du        
  10892 ****       -12.2500   6.7500  15.5000 Du        
  10893 ****       -12.2500   6.7500  15.7500 Du        
  10894 ****       -12.2500   6.7500  16.0000 Du        
  10895 ****       -12.2500   6.7500  16.2500 Du        
  10896 ****       -12.2500   6.7500  16.5000 Du        
  10897 ****       -12.2500   6.7500  16.7500 Du        
  10898 ****       -12.2500   7.0000   9.5000 Du        
  10899 ****       -12.2500   7.0000  15.0000 Du        
  10900 ****       -12.2500   7.0000  15.2500 Du        
  10901 ****       -12.2500   7.0000  15.5000 Du        
  10902 ****       -12.2500   7.0000  15.7500 Du        
  10903 ****       -12.2500   7.0000  16.0000 Du        
  10904 ****       -12.2500   7.0000  16.2500 Du        
  10905 ****       -12.2500   7.2500  15.2500 Du        
  10906 ****       -12.2500   7.2500  15.5000 Du        
  10907 ****       -12.2500   7.2500  20.7500 Du        
  10908 ****       -12.2500   7.2500  21.0000 Du        
  10909 ****       -12.2500   7.2500  21.2500 Du        
  10910 ****       -12.2500   7.2500  21.5000 Du        
  10911 ****       -12.2500   7.2500  21.7500 Du        
  10912 ****       -12.2500   7.5000  20.5000 Du        
  10913 ****       -12.2500   7.5000  20.7500 Du        
  10914 ****       -12.2500   7.5000  21.0000 Du        
  10915 ****       -12.2500   7.5000  21.2500 Du        
  10916 ****       -12.2500   7.5000  21.5000 Du        
  10917 ****       -12.2500   7.5000  21.7500 Du        
  10918 ****       -12.2500   7.5000  22.0000 Du        
  10919 ****       -12.2500   7.7500  20.7500 Du        
  10920 ****       -12.2500   7.7500  21.0000 Du        
  10921 ****       -12.2500   7.7500  21.2500 Du        
  10922 ****       -12.2500   7.7500  21.5000 Du        
  10923 ****       -12.2500   7.7500  21.7500 Du        
  10924 ****       -12.2500   7.7500  22.0000 Du        
  10925 ****       -12.2500   7.7500  22.2500 Du        
  10926 ****       -12.2500   8.0000  21.0000 Du        
  10927 ****       -12.2500   8.0000  21.2500 Du        
  10928 ****       -12.2500   8.0000  21.5000 Du        
  10929 ****       -12.2500   8.0000  21.7500 Du        
  10930 ****       -12.2500   8.0000  22.0000 Du        
  10931 ****       -12.2500   8.0000  22.2500 Du        
  10932 ****       -12.2500   8.2500  21.2500 Du        
  10933 ****       -12.2500   8.2500  21.5000 Du        
  10934 ****       -12.2500   8.2500  21.7500 Du        
  10935 ****       -12.2500   8.2500  22.0000 Du        
  10936 ****       -12.2500   8.2500  22.2500 Du        
  10937 ****       -12.2500   8.5000  21.2500 Du        
  10938 ****       -12.2500   8.5000  21.5000 Du        
  10939 ****       -12.2500   8.5000  21.7500 Du        
  10940 ****       -12.2500   8.5000  22.0000 Du        
  10941 ****       -12.2500   8.5000  22.2500 Du        
  10942 ****       -12.2500   8.7500  21.5000 Du        
  10943 ****       -12.2500   8.7500  21.7500 Du        
  10944 ****       -12.2500   8.7500  22.0000 Du        
  10945 ****       -12.2500   8.7500  22.2500 Du        
  10946 ****       -12.2500   9.0000  21.7500 Du        
  10947 ****       -12.2500  10.2500  13.5000 Du        
  10948 ****       -12.2500  10.5000  12.7500 Du        
  10949 ****       -12.2500  10.5000  13.0000 Du        
  10950 ****       -12.2500  10.5000  13.2500 Du        
  10951 ****       -12.2500  10.5000  13.5000 Du        
  10952 ****       -12.2500  10.5000  13.7500 Du        
  10953 ****       -12.2500  10.7500  12.5000 Du        
  10954 ****       -12.2500  10.7500  12.7500 Du        
  10955 ****       -12.2500  10.7500  13.0000 Du        
  10956 ****       -12.2500  10.7500  13.2500 Du        
  10957 ****       -12.2500  10.7500  13.5000 Du        
  10958 ****       -12.2500  10.7500  13.7500 Du        
  10959 ****       -12.2500  11.0000  12.0000 Du        
  10960 ****       -12.2500  11.0000  12.2500 Du        
  10961 ****       -12.2500  11.0000  12.5000 Du        
  10962 ****       -12.2500  11.0000  12.7500 Du        
  10963 ****       -12.2500  11.0000  13.0000 Du        
  10964 ****       -12.2500  11.0000  13.2500 Du        
  10965 ****       -12.2500  11.0000  13.5000 Du        
  10966 ****       -12.2500  11.0000  13.7500 Du        
  10967 ****       -12.2500  11.0000  14.0000 Du        
  10968 ****       -12.2500  11.2500  12.0000 Du        
  10969 ****       -12.2500  11.2500  12.2500 Du        
  10970 ****       -12.2500  11.2500  12.5000 Du        
  10971 ****       -12.2500  11.2500  12.7500 Du        
  10972 ****       -12.2500  11.2500  13.0000 Du        
  10973 ****       -12.2500  11.2500  13.2500 Du        
  10974 ****       -12.2500  11.2500  13.5000 Du        
  10975 ****       -12.2500  11.2500  13.7500 Du        
  10976 ****       -12.2500  11.2500  14.0000 Du        
  10977 ****       -12.2500  11.5000  12.0000 Du        
  10978 ****       -12.2500  11.5000  12.2500 Du        
  10979 ****       -12.2500  11.5000  12.5000 Du        
  10980 ****       -12.2500  11.5000  12.7500 Du        
  10981 ****       -12.2500  11.5000  13.0000 Du        
  10982 ****       -12.2500  11.5000  13.2500 Du        
  10983 ****       -12.2500  11.5000  13.5000 Du        
  10984 ****       -12.2500  11.5000  13.7500 Du        
  10985 ****       -12.2500  11.5000  14.0000 Du        
  10986 ****       -12.2500  11.7500  11.7500 Du        
  10987 ****       -12.2500  11.7500  12.0000 Du        
  10988 ****       -12.2500  11.7500  12.2500 Du        
  10989 ****       -12.2500  11.7500  12.5000 Du        
  10990 ****       -12.2500  11.7500  12.7500 Du        
  10991 ****       -12.2500  11.7500  13.0000 Du        
  10992 ****       -12.2500  11.7500  13.2500 Du        
  10993 ****       -12.2500  11.7500  13.5000 Du        
  10994 ****       -12.2500  11.7500  13.7500 Du        
  10995 ****       -12.2500  11.7500  14.0000 Du        
  10996 ****       -12.2500  11.7500  14.2500 Du        
  10997 ****       -12.2500  12.0000  11.5000 Du        
  10998 ****       -12.2500  12.0000  11.7500 Du        
  10999 ****       -12.2500  12.0000  12.0000 Du        
  11000 ****       -12.2500  12.0000  12.2500 Du        
  11001 ****       -12.2500  12.0000  12.5000 Du        
  11002 ****       -12.2500  12.0000  12.7500 Du        
  11003 ****       -12.2500  12.0000  13.0000 Du        
  11004 ****       -12.2500  12.0000  13.2500 Du        
  11005 ****       -12.2500  12.0000  13.5000 Du        
  11006 ****       -12.2500  12.0000  13.7500 Du        
  11007 ****       -12.2500  12.0000  14.0000 Du        
  11008 ****       -12.2500  12.0000  14.2500 Du        
  11009 ****       -12.2500  12.0000  14.5000 Du        
  11010 ****       -12.2500  12.2500  11.7500 Du        
  11011 ****       -12.2500  12.2500  12.0000 Du        
  11012 ****       -12.2500  12.2500  12.2500 Du        
  11013 ****       -12.2500  12.2500  12.5000 Du        
  11014 ****       -12.2500  12.2500  12.7500 Du        
  11015 ****       -12.2500  12.2500  13.0000 Du        
  11016 ****       -12.2500  12.2500  13.2500 Du        
  11017 ****       -12.2500  12.2500  13.5000 Du        
  11018 ****       -12.2500  12.2500  13.7500 Du        
  11019 ****       -12.2500  12.2500  14.0000 Du        
  11020 ****       -12.2500  12.2500  14.2500 Du        
  11021 ****       -12.2500  12.2500  14.5000 Du        
  11022 ****       -12.2500  12.2500  27.7500 Du        
  11023 ****       -12.2500  12.2500  28.0000 Du        
  11024 ****       -12.2500  12.2500  28.2500 Du        
  11025 ****       -12.2500  12.5000  11.7500 Du        
  11026 ****       -12.2500  12.5000  12.0000 Du        
  11027 ****       -12.2500  12.5000  12.2500 Du        
  11028 ****       -12.2500  12.5000  12.5000 Du        
  11029 ****       -12.2500  12.5000  12.7500 Du        
  11030 ****       -12.2500  12.5000  13.0000 Du        
  11031 ****       -12.2500  12.5000  13.2500 Du        
  11032 ****       -12.2500  12.5000  13.5000 Du        
  11033 ****       -12.2500  12.5000  13.7500 Du        
  11034 ****       -12.2500  12.5000  14.0000 Du        
  11035 ****       -12.2500  12.5000  14.2500 Du        
  11036 ****       -12.2500  12.5000  14.5000 Du        
  11037 ****       -12.2500  12.5000  25.7500 Du        
  11038 ****       -12.2500  12.5000  26.0000 Du        
  11039 ****       -12.2500  12.5000  26.2500 Du        
  11040 ****       -12.2500  12.5000  26.5000 Du        
  11041 ****       -12.2500  12.5000  26.7500 Du        
  11042 ****       -12.2500  12.5000  27.0000 Du        
  11043 ****       -12.2500  12.5000  27.2500 Du        
  11044 ****       -12.2500  12.5000  27.5000 Du        
  11045 ****       -12.2500  12.5000  27.7500 Du        
  11046 ****       -12.2500  12.5000  28.0000 Du        
  11047 ****       -12.2500  12.5000  28.2500 Du        
  11048 ****       -12.2500  12.7500  12.5000 Du        
  11049 ****       -12.2500  12.7500  12.7500 Du        
  11050 ****       -12.2500  12.7500  13.0000 Du        
  11051 ****       -12.2500  12.7500  13.2500 Du        
  11052 ****       -12.2500  12.7500  13.5000 Du        
  11053 ****       -12.2500  12.7500  13.7500 Du        
  11054 ****       -12.2500  12.7500  14.0000 Du        
  11055 ****       -12.2500  12.7500  14.2500 Du        
  11056 ****       -12.2500  12.7500  14.5000 Du        
  11057 ****       -12.2500  12.7500  25.0000 Du        
  11058 ****       -12.2500  12.7500  25.2500 Du        
  11059 ****       -12.2500  12.7500  25.5000 Du        
  11060 ****       -12.2500  12.7500  25.7500 Du        
  11061 ****       -12.2500  12.7500  26.0000 Du        
  11062 ****       -12.2500  12.7500  26.2500 Du        
  11063 ****       -12.2500  12.7500  26.5000 Du        
  11064 ****       -12.2500  12.7500  26.7500 Du        
  11065 ****       -12.2500  12.7500  27.0000 Du        
  11066 ****       -12.2500  12.7500  27.2500 Du        
  11067 ****       -12.2500  12.7500  27.5000 Du        
  11068 ****       -12.2500  12.7500  27.7500 Du        
  11069 ****       -12.2500  12.7500  28.0000 Du        
  11070 ****       -12.2500  12.7500  28.2500 Du        
  11071 ****       -12.2500  13.0000  13.0000 Du        
  11072 ****       -12.2500  13.0000  13.2500 Du        
  11073 ****       -12.2500  13.0000  13.5000 Du        
  11074 ****       -12.2500  13.0000  13.7500 Du        
  11075 ****       -12.2500  13.0000  14.0000 Du        
  11076 ****       -12.2500  13.0000  24.7500 Du        
  11077 ****       -12.2500  13.0000  25.0000 Du        
  11078 ****       -12.2500  13.0000  25.2500 Du        
  11079 ****       -12.2500  13.0000  25.5000 Du        
  11080 ****       -12.2500  13.0000  25.7500 Du        
  11081 ****       -12.2500  13.0000  26.0000 Du        
  11082 ****       -12.2500  13.0000  26.2500 Du        
  11083 ****       -12.2500  13.0000  26.5000 Du        
  11084 ****       -12.2500  13.0000  26.7500 Du        
  11085 ****       -12.2500  13.0000  27.0000 Du        
  11086 ****       -12.2500  13.0000  27.2500 Du        
  11087 ****       -12.2500  13.0000  27.5000 Du        
  11088 ****       -12.2500  13.0000  27.7500 Du        
  11089 ****       -12.2500  13.0000  28.0000 Du        
  11090 ****       -12.2500  13.0000  28.2500 Du        
  11091 ****       -12.2500  13.2500  24.5000 Du        
  11092 ****       -12.2500  13.2500  24.7500 Du        
  11093 ****       -12.2500  13.2500  25.0000 Du        
  11094 ****       -12.2500  13.2500  25.2500 Du        
  11095 ****       -12.2500  13.2500  25.5000 Du        
  11096 ****       -12.2500  13.2500  25.7500 Du        
  11097 ****       -12.2500  13.2500  26.0000 Du        
  11098 ****       -12.2500  13.2500  26.2500 Du        
  11099 ****       -12.2500  13.2500  26.5000 Du        
  11100 ****       -12.2500  13.2500  26.7500 Du        
  11101 ****       -12.2500  13.2500  27.0000 Du        
  11102 ****       -12.2500  13.2500  27.2500 Du        
  11103 ****       -12.2500  13.2500  27.5000 Du        
  11104 ****       -12.2500  13.2500  27.7500 Du        
  11105 ****       -12.2500  13.2500  28.0000 Du        
  11106 ****       -12.2500  13.2500  28.2500 Du        
  11107 ****       -12.2500  13.5000  24.5000 Du        
  11108 ****       -12.2500  13.5000  24.7500 Du        
  11109 ****       -12.2500  13.5000  25.0000 Du        
  11110 ****       -12.2500  13.5000  25.2500 Du        
  11111 ****       -12.2500  13.5000  25.5000 Du        
  11112 ****       -12.2500  13.5000  25.7500 Du        
  11113 ****       -12.2500  13.5000  26.0000 Du        
  11114 ****       -12.2500  13.5000  26.2500 Du        
  11115 ****       -12.2500  13.5000  26.5000 Du        
  11116 ****       -12.2500  13.5000  26.7500 Du        
  11117 ****       -12.2500  13.5000  27.0000 Du        
  11118 ****       -12.2500  13.5000  27.2500 Du        
  11119 ****       -12.2500  13.5000  27.5000 Du        
  11120 ****       -12.2500  13.5000  27.7500 Du        
  11121 ****       -12.2500  13.5000  28.0000 Du        
  11122 ****       -12.2500  13.7500  26.5000 Du        
  11123 ****       -12.2500  13.7500  26.7500 Du        
  11124 ****       -12.2500  13.7500  27.0000 Du        
  11125 ****       -12.2500  13.7500  27.2500 Du        
  11126 ****       -12.2500  13.7500  27.5000 Du        
  11127 ****       -12.2500  13.7500  27.7500 Du        
  11128 ****       -12.2500  13.7500  28.0000 Du        
  11129 ****       -12.0000 -20.0000  31.2500 Du        
  11130 ****       -12.0000 -19.7500  31.2500 Du        
  11131 ****       -12.0000 -15.2500  26.7500 Du        
  11132 ****       -12.0000 -15.2500  27.0000 Du        
  11133 ****       -12.0000 -15.2500  27.2500 Du        
  11134 ****       -12.0000 -15.0000  27.0000 Du        
  11135 ****       -12.0000 -15.0000  27.2500 Du        
  11136 ****       -12.0000 -14.7500  27.2500 Du        
  11137 ****       -12.0000   1.5000  19.7500 Du        
  11138 ****       -12.0000   1.5000  20.0000 Du        
  11139 ****       -12.0000   1.5000  20.2500 Du        
  11140 ****       -12.0000   1.7500  16.5000 Du        
  11141 ****       -12.0000   1.7500  16.7500 Du        
  11142 ****       -12.0000   1.7500  17.0000 Du        
  11143 ****       -12.0000   1.7500  17.2500 Du        
  11144 ****       -12.0000   1.7500  18.0000 Du        
  11145 ****       -12.0000   1.7500  18.2500 Du        
  11146 ****       -12.0000   1.7500  18.5000 Du        
  11147 ****       -12.0000   1.7500  18.7500 Du        
  11148 ****       -12.0000   1.7500  19.0000 Du        
  11149 ****       -12.0000   1.7500  19.2500 Du        
  11150 ****       -12.0000   1.7500  19.5000 Du        
  11151 ****       -12.0000   1.7500  19.7500 Du        
  11152 ****       -12.0000   1.7500  20.0000 Du        
  11153 ****       -12.0000   1.7500  20.2500 Du        
  11154 ****       -12.0000   1.7500  20.5000 Du        
  11155 ****       -12.0000   2.0000  16.5000 Du        
  11156 ****       -12.0000   2.0000  16.7500 Du        
  11157 ****       -12.0000   2.0000  17.0000 Du        
  11158 ****       -12.0000   2.0000  17.2500 Du        
  11159 ****       -12.0000   2.0000  17.5000 Du        
  11160 ****       -12.0000   2.0000  17.7500 Du        
  11161 ****       -12.0000   2.0000  18.0000 Du        
  11162 ****       -12.0000   2.0000  18.2500 Du        
  11163 ****       -12.0000   2.0000  18.5000 Du        
  11164 ****       -12.0000   2.0000  18.7500 Du        
  11165 ****       -12.0000   2.0000  19.0000 Du        
  11166 ****       -12.0000   2.0000  19.2500 Du        
  11167 ****       -12.0000   2.0000  19.5000 Du        
  11168 ****       -12.0000   2.0000  19.7500 Du        
  11169 ****       -12.0000   2.0000  20.0000 Du        
  11170 ****       -12.0000   2.0000  20.2500 Du        
  11171 ****       -12.0000   2.2500  16.7500 Du        
  11172 ****       -12.0000   2.2500  17.0000 Du        
  11173 ****       -12.0000   2.2500  17.2500 Du        
  11174 ****       -12.0000   2.2500  17.5000 Du        
  11175 ****       -12.0000   2.2500  17.7500 Du        
  11176 ****       -12.0000   2.2500  18.0000 Du        
  11177 ****       -12.0000   2.2500  18.2500 Du        
  11178 ****       -12.0000   2.2500  18.5000 Du        
  11179 ****       -12.0000   2.2500  18.7500 Du        
  11180 ****       -12.0000   2.2500  19.0000 Du        
  11181 ****       -12.0000   2.2500  19.2500 Du        
  11182 ****       -12.0000   2.2500  19.5000 Du        
  11183 ****       -12.0000   2.2500  19.7500 Du        
  11184 ****       -12.0000   2.2500  20.0000 Du        
  11185 ****       -12.0000   2.2500  20.2500 Du        
  11186 ****       -12.0000   2.5000  16.7500 Du        
  11187 ****       -12.0000   2.5000  17.0000 Du        
  11188 ****       -12.0000   2.5000  17.2500 Du        
  11189 ****       -12.0000   2.5000  17.5000 Du        
  11190 ****       -12.0000   2.5000  17.7500 Du        
  11191 ****       -12.0000   2.5000  18.0000 Du        
  11192 ****       -12.0000   2.5000  18.2500 Du        
  11193 ****       -12.0000   2.5000  18.5000 Du        
  11194 ****       -12.0000   2.5000  18.7500 Du        
  11195 ****       -12.0000   2.5000  19.0000 Du        
  11196 ****       -12.0000   2.5000  19.2500 Du        
  11197 ****       -12.0000   2.5000  19.5000 Du        
  11198 ****       -12.0000   2.5000  19.7500 Du        
  11199 ****       -12.0000   2.5000  20.0000 Du        
  11200 ****       -12.0000   2.7500  16.7500 Du        
  11201 ****       -12.0000   2.7500  17.0000 Du        
  11202 ****       -12.0000   2.7500  17.2500 Du        
  11203 ****       -12.0000   2.7500  17.5000 Du        
  11204 ****       -12.0000   2.7500  17.7500 Du        
  11205 ****       -12.0000   2.7500  18.0000 Du        
  11206 ****       -12.0000   2.7500  18.2500 Du        
  11207 ****       -12.0000   2.7500  18.5000 Du        
  11208 ****       -12.0000   2.7500  18.7500 Du        
  11209 ****       -12.0000   2.7500  19.0000 Du        
  11210 ****       -12.0000   2.7500  19.2500 Du        
  11211 ****       -12.0000   3.0000  16.7500 Du        
  11212 ****       -12.0000   3.0000  17.0000 Du        
  11213 ****       -12.0000   3.0000  17.2500 Du        
  11214 ****       -12.0000   3.0000  17.5000 Du        
  11215 ****       -12.0000   3.0000  17.7500 Du        
  11216 ****       -12.0000   3.0000  18.0000 Du        
  11217 ****       -12.0000   3.0000  18.2500 Du        
  11218 ****       -12.0000   3.0000  18.5000 Du        
  11219 ****       -12.0000   3.0000  18.7500 Du        
  11220 ****       -12.0000   3.2500  16.7500 Du        
  11221 ****       -12.0000   3.2500  17.0000 Du        
  11222 ****       -12.0000   3.2500  17.2500 Du        
  11223 ****       -12.0000   3.2500  17.5000 Du        
  11224 ****       -12.0000   3.2500  17.7500 Du        
  11225 ****       -12.0000   3.2500  18.0000 Du        
  11226 ****       -12.0000   3.5000  16.7500 Du        
  11227 ****       -12.0000   3.5000  17.0000 Du        
  11228 ****       -12.0000   3.5000  17.2500 Du        
  11229 ****       -12.0000   3.5000  17.5000 Du        
  11230 ****       -12.0000   3.5000  17.7500 Du        
  11231 ****       -12.0000   3.7500  16.7500 Du        
  11232 ****       -12.0000   3.7500  17.0000 Du        
  11233 ****       -12.0000   3.7500  17.2500 Du        
  11234 ****       -12.0000   3.7500  17.5000 Du        
  11235 ****       -12.0000   4.0000  16.5000 Du        
  11236 ****       -12.0000   4.0000  16.7500 Du        
  11237 ****       -12.0000   4.0000  17.0000 Du        
  11238 ****       -12.0000   4.0000  17.2500 Du        
  11239 ****       -12.0000   4.2500  16.5000 Du        
  11240 ****       -12.0000   4.2500  16.7500 Du        
  11241 ****       -12.0000   4.2500  17.0000 Du        
  11242 ****       -12.0000   4.5000  16.2500 Du        
  11243 ****       -12.0000   4.5000  16.5000 Du        
  11244 ****       -12.0000   4.5000  16.7500 Du        
  11245 ****       -12.0000   4.5000  17.0000 Du        
  11246 ****       -12.0000   4.7500  16.2500 Du        
  11247 ****       -12.0000   4.7500  16.5000 Du        
  11248 ****       -12.0000   4.7500  16.7500 Du        
  11249 ****       -12.0000   4.7500  17.0000 Du        
  11250 ****       -12.0000   5.0000  16.0000 Du        
  11251 ****       -12.0000   5.0000  16.2500 Du        
  11252 ****       -12.0000   5.0000  16.5000 Du        
  11253 ****       -12.0000   5.0000  16.7500 Du        
  11254 ****       -12.0000   5.0000  17.0000 Du        
  11255 ****       -12.0000   5.2500   9.0000 Du        
  11256 ****       -12.0000   5.2500   9.2500 Du        
  11257 ****       -12.0000   5.2500  15.7500 Du        
  11258 ****       -12.0000   5.2500  16.0000 Du        
  11259 ****       -12.0000   5.2500  16.2500 Du        
  11260 ****       -12.0000   5.2500  16.5000 Du        
  11261 ****       -12.0000   5.2500  16.7500 Du        
  11262 ****       -12.0000   5.2500  17.0000 Du        
  11263 ****       -12.0000   5.5000   9.0000 Du        
  11264 ****       -12.0000   5.5000   9.2500 Du        
  11265 ****       -12.0000   5.5000   9.5000 Du        
  11266 ****       -12.0000   5.5000  15.5000 Du        
  11267 ****       -12.0000   5.5000  15.7500 Du        
  11268 ****       -12.0000   5.5000  16.0000 Du        
  11269 ****       -12.0000   5.5000  16.2500 Du        
  11270 ****       -12.0000   5.5000  16.5000 Du        
  11271 ****       -12.0000   5.5000  16.7500 Du        
  11272 ****       -12.0000   5.5000  17.0000 Du        
  11273 ****       -12.0000   5.7500   9.0000 Du        
  11274 ****       -12.0000   5.7500   9.2500 Du        
  11275 ****       -12.0000   5.7500   9.5000 Du        
  11276 ****       -12.0000   5.7500   9.7500 Du        
  11277 ****       -12.0000   5.7500  15.5000 Du        
  11278 ****       -12.0000   5.7500  15.7500 Du        
  11279 ****       -12.0000   5.7500  16.0000 Du        
  11280 ****       -12.0000   5.7500  16.2500 Du        
  11281 ****       -12.0000   5.7500  16.5000 Du        
  11282 ****       -12.0000   5.7500  16.7500 Du        
  11283 ****       -12.0000   5.7500  17.0000 Du        
  11284 ****       -12.0000   6.0000   9.0000 Du        
  11285 ****       -12.0000   6.0000   9.2500 Du        
  11286 ****       -12.0000   6.0000   9.5000 Du        
  11287 ****       -12.0000   6.0000   9.7500 Du        
  11288 ****       -12.0000   6.0000  15.5000 Du        
  11289 ****       -12.0000   6.0000  15.7500 Du        
  11290 ****       -12.0000   6.0000  16.0000 Du        
  11291 ****       -12.0000   6.0000  16.2500 Du        
  11292 ****       -12.0000   6.0000  16.5000 Du        
  11293 ****       -12.0000   6.0000  16.7500 Du        
  11294 ****       -12.0000   6.0000  17.0000 Du        
  11295 ****       -12.0000   6.2500   9.0000 Du        
  11296 ****       -12.0000   6.2500   9.2500 Du        
  11297 ****       -12.0000   6.2500   9.5000 Du        
  11298 ****       -12.0000   6.2500   9.7500 Du        
  11299 ****       -12.0000   6.2500  15.7500 Du        
  11300 ****       -12.0000   6.2500  16.0000 Du        
  11301 ****       -12.0000   6.2500  16.2500 Du        
  11302 ****       -12.0000   6.2500  16.5000 Du        
  11303 ****       -12.0000   6.2500  16.7500 Du        
  11304 ****       -12.0000   6.2500  17.0000 Du        
  11305 ****       -12.0000   6.5000   9.5000 Du        
  11306 ****       -12.0000   6.5000   9.7500 Du        
  11307 ****       -12.0000   6.5000  15.7500 Du        
  11308 ****       -12.0000   6.5000  16.0000 Du        
  11309 ****       -12.0000   6.5000  16.2500 Du        
  11310 ****       -12.0000   6.5000  16.5000 Du        
  11311 ****       -12.0000   6.5000  16.7500 Du        
  11312 ****       -12.0000   6.7500   9.5000 Du        
  11313 ****       -12.0000   6.7500  15.7500 Du        
  11314 ****       -12.0000   6.7500  16.0000 Du        
  11315 ****       -12.0000   6.7500  16.2500 Du        
  11316 ****       -12.0000   6.7500  16.5000 Du        
  11317 ****       -12.0000   7.0000  15.7500 Du        
  11318 ****       -12.0000   7.0000  16.0000 Du        
  11319 ****       -12.0000   7.0000  16.2500 Du        
  11320 ****       -12.0000   7.2500  20.7500 Du        
  11321 ****       -12.0000   7.2500  21.0000 Du        
  11322 ****       -12.0000   7.2500  21.2500 Du        
  11323 ****       -12.0000   7.2500  21.5000 Du        
  11324 ****       -12.0000   7.2500  21.7500 Du        
  11325 ****       -12.0000   7.2500  22.0000 Du        
  11326 ****       -12.0000   7.2500  22.2500 Du        
  11327 ****       -12.0000   7.5000  20.7500 Du        
  11328 ****       -12.0000   7.5000  21.0000 Du        
  11329 ****       -12.0000   7.5000  21.2500 Du        
  11330 ****       -12.0000   7.5000  21.5000 Du        
  11331 ****       -12.0000   7.5000  21.7500 Du        
  11332 ****       -12.0000   7.5000  22.0000 Du        
  11333 ****       -12.0000   7.5000  22.2500 Du        
  11334 ****       -12.0000   7.7500  20.7500 Du        
  11335 ****       -12.0000   7.7500  21.0000 Du        
  11336 ****       -12.0000   7.7500  21.2500 Du        
  11337 ****       -12.0000   7.7500  21.5000 Du        
  11338 ****       -12.0000   7.7500  21.7500 Du        
  11339 ****       -12.0000   7.7500  22.0000 Du        
  11340 ****       -12.0000   7.7500  22.2500 Du        
  11341 ****       -12.0000   8.0000  21.0000 Du        
  11342 ****       -12.0000   8.0000  21.2500 Du        
  11343 ****       -12.0000   8.0000  21.5000 Du        
  11344 ****       -12.0000   8.0000  21.7500 Du        
  11345 ****       -12.0000   8.0000  22.0000 Du        
  11346 ****       -12.0000   8.0000  22.2500 Du        
  11347 ****       -12.0000   8.2500  21.0000 Du        
  11348 ****       -12.0000   8.2500  21.2500 Du        
  11349 ****       -12.0000   8.2500  21.5000 Du        
  11350 ****       -12.0000   8.2500  21.7500 Du        
  11351 ****       -12.0000   8.2500  22.0000 Du        
  11352 ****       -12.0000   8.2500  22.2500 Du        
  11353 ****       -12.0000   8.5000  21.2500 Du        
  11354 ****       -12.0000   8.5000  21.5000 Du        
  11355 ****       -12.0000   8.5000  21.7500 Du        
  11356 ****       -12.0000   8.5000  22.0000 Du        
  11357 ****       -12.0000   8.7500  21.5000 Du        
  11358 ****       -12.0000   8.7500  21.7500 Du        
  11359 ****       -12.0000   8.7500  22.0000 Du        
  11360 ****       -12.0000  10.2500  13.5000 Du        
  11361 ****       -12.0000  10.2500  13.7500 Du        
  11362 ****       -12.0000  10.5000  12.7500 Du        
  11363 ****       -12.0000  10.5000  13.0000 Du        
  11364 ****       -12.0000  10.5000  13.2500 Du        
  11365 ****       -12.0000  10.5000  13.5000 Du        
  11366 ****       -12.0000  10.5000  13.7500 Du        
  11367 ****       -12.0000  10.7500  12.2500 Du        
  11368 ****       -12.0000  10.7500  12.5000 Du        
  11369 ****       -12.0000  10.7500  12.7500 Du        
  11370 ****       -12.0000  10.7500  13.0000 Du        
  11371 ****       -12.0000  10.7500  13.2500 Du        
  11372 ****       -12.0000  10.7500  13.5000 Du        
  11373 ****       -12.0000  10.7500  13.7500 Du        
  11374 ****       -12.0000  10.7500  14.0000 Du        
  11375 ****       -12.0000  11.0000  12.0000 Du        
  11376 ****       -12.0000  11.0000  12.2500 Du        
  11377 ****       -12.0000  11.0000  12.5000 Du        
  11378 ****       -12.0000  11.0000  12.7500 Du        
  11379 ****       -12.0000  11.0000  13.0000 Du        
  11380 ****       -12.0000  11.0000  13.2500 Du        
  11381 ****       -12.0000  11.0000  13.5000 Du        
  11382 ****       -12.0000  11.0000  13.7500 Du        
  11383 ****       -12.0000  11.0000  14.0000 Du        
  11384 ****       -12.0000  11.2500  12.0000 Du        
  11385 ****       -12.0000  11.2500  12.2500 Du        
  11386 ****       -12.0000  11.2500  12.5000 Du        
  11387 ****       -12.0000  11.2500  12.7500 Du        
  11388 ****       -12.0000  11.2500  13.0000 Du        
  11389 ****       -12.0000  11.2500  13.2500 Du        
  11390 ****       -12.0000  11.2500  13.5000 Du        
  11391 ****       -12.0000  11.2500  13.7500 Du        
  11392 ****       -12.0000  11.2500  14.0000 Du        
  11393 ****       -12.0000  11.5000  12.0000 Du        
  11394 ****       -12.0000  11.5000  12.2500 Du        
  11395 ****       -12.0000  11.5000  12.5000 Du        
  11396 ****       -12.0000  11.5000  12.7500 Du        
  11397 ****       -12.0000  11.5000  13.0000 Du        
  11398 ****       -12.0000  11.5000  13.2500 Du        
  11399 ****       -12.0000  11.5000  13.5000 Du        
  11400 ****       -12.0000  11.5000  13.7500 Du        
  11401 ****       -12.0000  11.5000  14.0000 Du        
  11402 ****       -12.0000  11.5000  14.2500 Du        
  11403 ****       -12.0000  11.7500  11.5000 Du        
  11404 ****       -12.0000  11.7500  11.7500 Du        
  11405 ****       -12.0000  11.7500  12.0000 Du        
  11406 ****       -12.0000  11.7500  12.2500 Du        
  11407 ****       -12.0000  11.7500  12.5000 Du        
  11408 ****       -12.0000  11.7500  12.7500 Du        
  11409 ****       -12.0000  11.7500  13.0000 Du        
  11410 ****       -12.0000  11.7500  13.2500 Du        
  11411 ****       -12.0000  11.7500  13.5000 Du        
  11412 ****       -12.0000  11.7500  13.7500 Du        
  11413 ****       -12.0000  11.7500  14.0000 Du        
  11414 ****       -12.0000  11.7500  14.2500 Du        
  11415 ****       -12.0000  12.0000  11.5000 Du        
  11416 ****       -12.0000  12.0000  11.7500 Du        
  11417 ****       -12.0000  12.0000  12.0000 Du        
  11418 ****       -12.0000  12.0000  12.2500 Du        
  11419 ****       -12.0000  12.0000  12.5000 Du        
  11420 ****       -12.0000  12.0000  12.7500 Du        
  11421 ****       -12.0000  12.0000  13.0000 Du        
  11422 ****       -12.0000  12.0000  13.2500 Du        
  11423 ****       -12.0000  12.0000  13.5000 Du        
  11424 ****       -12.0000  12.0000  13.7500 Du        
  11425 ****       -12.0000  12.0000  14.0000 Du        
  11426 ****       -12.0000  12.0000  14.2500 Du        
  11427 ****       -12.0000  12.0000  14.5000 Du        
  11428 ****       -12.0000  12.2500  11.7500 Du        
  11429 ****       -12.0000  12.2500  12.0000 Du        
  11430 ****       -12.0000  12.2500  12.2500 Du        
  11431 ****       -12.0000  12.2500  12.5000 Du        
  11432 ****       -12.0000  12.2500  12.7500 Du        
  11433 ****       -12.0000  12.2500  13.0000 Du        
  11434 ****       -12.0000  12.2500  13.2500 Du        
  11435 ****       -12.0000  12.2500  13.5000 Du        
  11436 ****       -12.0000  12.2500  13.7500 Du        
  11437 ****       -12.0000  12.2500  14.0000 Du        
  11438 ****       -12.0000  12.2500  14.2500 Du        
  11439 ****       -12.0000  12.2500  14.5000 Du        
  11440 ****       -12.0000  12.2500  27.7500 Du        
  11441 ****       -12.0000  12.2500  28.0000 Du        
  11442 ****       -12.0000  12.2500  28.2500 Du        
  11443 ****       -12.0000  12.5000  12.5000 Du        
  11444 ****       -12.0000  12.5000  12.7500 Du        
  11445 ****       -12.0000  12.5000  13.0000 Du        
  11446 ****       -12.0000  12.5000  13.2500 Du        
  11447 ****       -12.0000  12.5000  13.5000 Du        
  11448 ****       -12.0000  12.5000  13.7500 Du        
  11449 ****       -12.0000  12.5000  14.0000 Du        
  11450 ****       -12.0000  12.5000  14.2500 Du        
  11451 ****       -12.0000  12.5000  14.5000 Du        
  11452 ****       -12.0000  12.5000  27.0000 Du        
  11453 ****       -12.0000  12.5000  27.2500 Du        
  11454 ****       -12.0000  12.5000  27.5000 Du        
  11455 ****       -12.0000  12.5000  27.7500 Du        
  11456 ****       -12.0000  12.5000  28.0000 Du        
  11457 ****       -12.0000  12.5000  28.2500 Du        
  11458 ****       -12.0000  12.7500  13.2500 Du        
  11459 ****       -12.0000  12.7500  13.5000 Du        
  11460 ****       -12.0000  12.7500  13.7500 Du        
  11461 ****       -12.0000  12.7500  14.0000 Du        
  11462 ****       -12.0000  12.7500  14.2500 Du        
  11463 ****       -12.0000  12.7500  25.5000 Du        
  11464 ****       -12.0000  12.7500  25.7500 Du        
  11465 ****       -12.0000  12.7500  26.0000 Du        
  11466 ****       -12.0000  12.7500  26.2500 Du        
  11467 ****       -12.0000  12.7500  26.5000 Du        
  11468 ****       -12.0000  12.7500  26.7500 Du        
  11469 ****       -12.0000  12.7500  27.0000 Du        
  11470 ****       -12.0000  12.7500  27.2500 Du        
  11471 ****       -12.0000  12.7500  27.5000 Du        
  11472 ****       -12.0000  12.7500  27.7500 Du        
  11473 ****       -12.0000  12.7500  28.0000 Du        
  11474 ****       -12.0000  12.7500  28.2500 Du        
  11475 ****       -12.0000  13.0000  25.0000 Du        
  11476 ****       -12.0000  13.0000  25.2500 Du        
  11477 ****       -12.0000  13.0000  25.5000 Du        
  11478 ****       -12.0000  13.0000  25.7500 Du        
  11479 ****       -12.0000  13.0000  26.0000 Du        
  11480 ****       -12.0000  13.0000  26.2500 Du        
  11481 ****       -12.0000  13.0000  26.5000 Du        
  11482 ****       -12.0000  13.0000  26.7500 Du        
  11483 ****       -12.0000  13.0000  27.0000 Du        
  11484 ****       -12.0000  13.0000  27.2500 Du        
  11485 ****       -12.0000  13.0000  27.5000 Du        
  11486 ****       -12.0000  13.0000  27.7500 Du        
  11487 ****       -12.0000  13.0000  28.0000 Du        
  11488 ****       -12.0000  13.0000  28.2500 Du        
  11489 ****       -12.0000  13.2500  24.7500 Du        
  11490 ****       -12.0000  13.2500  25.0000 Du        
  11491 ****       -12.0000  13.2500  25.2500 Du        
  11492 ****       -12.0000  13.2500  25.5000 Du        
  11493 ****       -12.0000  13.2500  25.7500 Du        
  11494 ****       -12.0000  13.2500  26.0000 Du        
  11495 ****       -12.0000  13.2500  26.2500 Du        
  11496 ****       -12.0000  13.2500  26.5000 Du        
  11497 ****       -12.0000  13.2500  26.7500 Du        
  11498 ****       -12.0000  13.2500  27.0000 Du        
  11499 ****       -12.0000  13.2500  27.2500 Du        
  11500 ****       -12.0000  13.2500  27.5000 Du        
  11501 ****       -12.0000  13.2500  27.7500 Du        
  11502 ****       -12.0000  13.2500  28.0000 Du        
  11503 ****       -12.0000  13.2500  28.2500 Du        
  11504 ****       -12.0000  13.5000  24.7500 Du        
  11505 ****       -12.0000  13.5000  25.0000 Du        
  11506 ****       -12.0000  13.5000  25.2500 Du        
  11507 ****       -12.0000  13.5000  25.5000 Du        
  11508 ****       -12.0000  13.5000  25.7500 Du        
  11509 ****       -12.0000  13.5000  26.0000 Du        
  11510 ****       -12.0000  13.5000  26.2500 Du        
  11511 ****       -12.0000  13.5000  26.5000 Du        
  11512 ****       -12.0000  13.5000  26.7500 Du        
  11513 ****       -12.0000  13.5000  27.0000 Du        
  11514 ****       -12.0000  13.5000  27.2500 Du        
  11515 ****       -12.0000  13.5000  27.5000 Du        
  11516 ****       -12.0000  13.5000  27.7500 Du        
  11517 ****       -12.0000  13.5000  28.0000 Du        
  11518 ****       -12.0000  13.7500  24.7500 Du        
  11519 ****       -12.0000  13.7500  25.0000 Du        
  11520 ****       -12.0000  13.7500  25.2500 Du        
  11521 ****       -12.0000  13.7500  26.0000 Du        
  11522 ****       -12.0000  13.7500  26.2500 Du        
  11523 ****       -12.0000  13.7500  26.5000 Du        
  11524 ****       -12.0000  13.7500  26.7500 Du        
  11525 ****       -12.0000  13.7500  27.0000 Du        
  11526 ****       -12.0000  13.7500  27.2500 Du        
  11527 ****       -12.0000  13.7500  27.5000 Du        
  11528 ****       -12.0000  13.7500  27.7500 Du        
  11529 ****       -12.0000  13.7500  28.0000 Du        
  11530 ****       -12.0000  14.0000  27.0000 Du        
  11531 ****       -12.0000  14.0000  27.2500 Du        
  11532 ****       -12.0000  14.0000  27.5000 Du        
  11533 ****       -12.0000  14.0000  27.7500 Du        
  11534 ****       -11.7500 -20.0000  31.0000 Du        
  11535 ****       -11.7500 -20.0000  31.2500 Du        
  11536 ****       -11.7500 -20.0000  31.5000 Du        
  11537 ****       -11.7500 -19.7500  31.0000 Du        
  11538 ****       -11.7500 -19.7500  31.2500 Du        
  11539 ****       -11.7500 -16.0000  25.2500 Du        
  11540 ****       -11.7500 -15.2500  26.7500 Du        
  11541 ****       -11.7500   1.7500  16.5000 Du        
  11542 ****       -11.7500   1.7500  16.7500 Du        
  11543 ****       -11.7500   1.7500  17.0000 Du        
  11544 ****       -11.7500   1.7500  17.2500 Du        
  11545 ****       -11.7500   1.7500  17.5000 Du        
  11546 ****       -11.7500   1.7500  17.7500 Du        
  11547 ****       -11.7500   1.7500  18.0000 Du        
  11548 ****       -11.7500   1.7500  18.2500 Du        
  11549 ****       -11.7500   1.7500  18.5000 Du        
  11550 ****       -11.7500   1.7500  18.7500 Du        
  11551 ****       -11.7500   1.7500  19.0000 Du        
  11552 ****       -11.7500   1.7500  19.2500 Du        
  11553 ****       -11.7500   1.7500  19.5000 Du        
  11554 ****       -11.7500   1.7500  19.7500 Du        
  11555 ****       -11.7500   1.7500  20.0000 Du        
  11556 ****       -11.7500   1.7500  20.2500 Du        
  11557 ****       -11.7500   2.0000  16.5000 Du        
  11558 ****       -11.7500   2.0000  16.7500 Du        
  11559 ****       -11.7500   2.0000  17.0000 Du        
  11560 ****       -11.7500   2.0000  17.2500 Du        
  11561 ****       -11.7500   2.0000  17.5000 Du        
  11562 ****       -11.7500   2.0000  17.7500 Du        
  11563 ****       -11.7500   2.0000  18.0000 Du        
  11564 ****       -11.7500   2.0000  18.2500 Du        
  11565 ****       -11.7500   2.0000  18.5000 Du        
  11566 ****       -11.7500   2.0000  18.7500 Du        
  11567 ****       -11.7500   2.0000  19.0000 Du        
  11568 ****       -11.7500   2.0000  19.2500 Du        
  11569 ****       -11.7500   2.0000  19.5000 Du        
  11570 ****       -11.7500   2.0000  19.7500 Du        
  11571 ****       -11.7500   2.0000  20.0000 Du        
  11572 ****       -11.7500   2.0000  20.2500 Du        
  11573 ****       -11.7500   2.2500  16.7500 Du        
  11574 ****       -11.7500   2.2500  17.0000 Du        
  11575 ****       -11.7500   2.2500  17.2500 Du        
  11576 ****       -11.7500   2.2500  17.5000 Du        
  11577 ****       -11.7500   2.2500  17.7500 Du        
  11578 ****       -11.7500   2.2500  18.0000 Du        
  11579 ****       -11.7500   2.2500  18.2500 Du        
  11580 ****       -11.7500   2.2500  18.5000 Du        
  11581 ****       -11.7500   2.2500  18.7500 Du        
  11582 ****       -11.7500   2.2500  19.0000 Du        
  11583 ****       -11.7500   2.2500  19.2500 Du        
  11584 ****       -11.7500   2.2500  19.5000 Du        
  11585 ****       -11.7500   2.2500  19.7500 Du        
  11586 ****       -11.7500   2.5000  16.7500 Du        
  11587 ****       -11.7500   2.5000  17.0000 Du        
  11588 ****       -11.7500   2.5000  17.2500 Du        
  11589 ****       -11.7500   2.5000  17.5000 Du        
  11590 ****       -11.7500   2.5000  17.7500 Du        
  11591 ****       -11.7500   2.5000  18.0000 Du        
  11592 ****       -11.7500   2.5000  18.2500 Du        
  11593 ****       -11.7500   2.5000  18.5000 Du        
  11594 ****       -11.7500   2.5000  18.7500 Du        
  11595 ****       -11.7500   2.5000  19.0000 Du        
  11596 ****       -11.7500   2.5000  19.2500 Du        
  11597 ****       -11.7500   2.7500  16.7500 Du        
  11598 ****       -11.7500   2.7500  17.0000 Du        
  11599 ****       -11.7500   2.7500  17.2500 Du        
  11600 ****       -11.7500   2.7500  17.5000 Du        
  11601 ****       -11.7500   2.7500  17.7500 Du        
  11602 ****       -11.7500   2.7500  18.0000 Du        
  11603 ****       -11.7500   2.7500  18.2500 Du        
  11604 ****       -11.7500   2.7500  18.5000 Du        
  11605 ****       -11.7500   3.0000  16.7500 Du        
  11606 ****       -11.7500   3.0000  17.0000 Du        
  11607 ****       -11.7500   3.0000  17.2500 Du        
  11608 ****       -11.7500   3.0000  17.5000 Du        
  11609 ****       -11.7500   3.0000  17.7500 Du        
  11610 ****       -11.7500   3.0000  18.0000 Du        
  11611 ****       -11.7500   3.2500  16.7500 Du        
  11612 ****       -11.7500   3.2500  17.0000 Du        
  11613 ****       -11.7500   3.2500  17.2500 Du        
  11614 ****       -11.7500   3.2500  17.5000 Du        
  11615 ****       -11.7500   3.2500  17.7500 Du        
  11616 ****       -11.7500   3.5000  16.7500 Du        
  11617 ****       -11.7500   3.5000  17.0000 Du        
  11618 ****       -11.7500   3.5000  17.2500 Du        
  11619 ****       -11.7500   3.7500  16.7500 Du        
  11620 ****       -11.7500   3.7500  17.0000 Du        
  11621 ****       -11.7500   4.0000  16.7500 Du        
  11622 ****       -11.7500   4.2500  16.7500 Du        
  11623 ****       -11.7500   4.7500  16.2500 Du        
  11624 ****       -11.7500   4.7500  16.5000 Du        
  11625 ****       -11.7500   5.0000  16.0000 Du        
  11626 ****       -11.7500   5.0000  16.2500 Du        
  11627 ****       -11.7500   5.0000  16.5000 Du        
  11628 ****       -11.7500   5.2500  16.0000 Du        
  11629 ****       -11.7500   5.2500  16.2500 Du        
  11630 ****       -11.7500   5.2500  16.5000 Du        
  11631 ****       -11.7500   5.2500  16.7500 Du        
  11632 ****       -11.7500   5.5000   9.0000 Du        
  11633 ****       -11.7500   5.5000  16.0000 Du        
  11634 ****       -11.7500   5.5000  16.2500 Du        
  11635 ****       -11.7500   5.5000  16.5000 Du        
  11636 ****       -11.7500   5.5000  16.7500 Du        
  11637 ****       -11.7500   5.7500   9.0000 Du        
  11638 ****       -11.7500   5.7500   9.2500 Du        
  11639 ****       -11.7500   5.7500   9.5000 Du        
  11640 ****       -11.7500   5.7500  16.0000 Du        
  11641 ****       -11.7500   5.7500  16.2500 Du        
  11642 ****       -11.7500   5.7500  16.5000 Du        
  11643 ****       -11.7500   5.7500  16.7500 Du        
  11644 ****       -11.7500   6.0000   9.0000 Du        
  11645 ****       -11.7500   6.0000   9.2500 Du        
  11646 ****       -11.7500   6.0000   9.5000 Du        
  11647 ****       -11.7500   6.0000  16.0000 Du        
  11648 ****       -11.7500   6.0000  16.2500 Du        
  11649 ****       -11.7500   6.0000  16.5000 Du        
  11650 ****       -11.7500   6.0000  16.7500 Du        
  11651 ****       -11.7500   6.2500   9.0000 Du        
  11652 ****       -11.7500   6.2500   9.2500 Du        
  11653 ****       -11.7500   6.2500   9.5000 Du        
  11654 ****       -11.7500   6.2500  16.2500 Du        
  11655 ****       -11.7500   6.2500  16.5000 Du        
  11656 ****       -11.7500   7.0000  21.7500 Du        
  11657 ****       -11.7500   7.0000  22.0000 Du        
  11658 ****       -11.7500   7.2500  21.2500 Du        
  11659 ****       -11.7500   7.2500  21.5000 Du        
  11660 ****       -11.7500   7.2500  21.7500 Du        
  11661 ****       -11.7500   7.2500  22.0000 Du        
  11662 ****       -11.7500   7.2500  22.2500 Du        
  11663 ****       -11.7500   7.5000  21.0000 Du        
  11664 ****       -11.7500   7.5000  21.2500 Du        
  11665 ****       -11.7500   7.5000  21.5000 Du        
  11666 ****       -11.7500   7.5000  21.7500 Du        
  11667 ****       -11.7500   7.5000  22.0000 Du        
  11668 ****       -11.7500   7.5000  22.2500 Du        
  11669 ****       -11.7500   7.7500  21.0000 Du        
  11670 ****       -11.7500   7.7500  21.2500 Du        
  11671 ****       -11.7500   7.7500  21.5000 Du        
  11672 ****       -11.7500   7.7500  21.7500 Du        
  11673 ****       -11.7500   7.7500  22.0000 Du        
  11674 ****       -11.7500   7.7500  22.2500 Du        
  11675 ****       -11.7500   8.0000  21.0000 Du        
  11676 ****       -11.7500   8.0000  21.2500 Du        
  11677 ****       -11.7500   8.0000  21.5000 Du        
  11678 ****       -11.7500   8.0000  21.7500 Du        
  11679 ****       -11.7500   8.0000  22.0000 Du        
  11680 ****       -11.7500   8.0000  22.2500 Du        
  11681 ****       -11.7500   8.2500  21.0000 Du        
  11682 ****       -11.7500   8.2500  21.2500 Du        
  11683 ****       -11.7500   8.2500  21.5000 Du        
  11684 ****       -11.7500   8.2500  21.7500 Du        
  11685 ****       -11.7500   8.2500  22.0000 Du        
  11686 ****       -11.7500   8.2500  22.2500 Du        
  11687 ****       -11.7500   8.5000  21.2500 Du        
  11688 ****       -11.7500   8.5000  21.5000 Du        
  11689 ****       -11.7500   8.5000  21.7500 Du        
  11690 ****       -11.7500   8.5000  22.0000 Du        
  11691 ****       -11.7500   8.7500  21.2500 Du        
  11692 ****       -11.7500   8.7500  21.5000 Du        
  11693 ****       -11.7500   8.7500  21.7500 Du        
  11694 ****       -11.7500  10.5000  13.0000 Du        
  11695 ****       -11.7500  10.5000  13.2500 Du        
  11696 ****       -11.7500  10.5000  13.5000 Du        
  11697 ****       -11.7500  10.5000  13.7500 Du        
  11698 ****       -11.7500  10.7500  12.2500 Du        
  11699 ****       -11.7500  10.7500  12.5000 Du        
  11700 ****       -11.7500  10.7500  12.7500 Du        
  11701 ****       -11.7500  10.7500  13.0000 Du        
  11702 ****       -11.7500  10.7500  13.2500 Du        
  11703 ****       -11.7500  10.7500  13.5000 Du        
  11704 ****       -11.7500  10.7500  13.7500 Du        
  11705 ****       -11.7500  10.7500  14.0000 Du        
  11706 ****       -11.7500  11.0000  11.7500 Du        
  11707 ****       -11.7500  11.0000  12.0000 Du        
  11708 ****       -11.7500  11.0000  12.2500 Du        
  11709 ****       -11.7500  11.0000  12.5000 Du        
  11710 ****       -11.7500  11.0000  12.7500 Du        
  11711 ****       -11.7500  11.0000  13.0000 Du        
  11712 ****       -11.7500  11.0000  13.2500 Du        
  11713 ****       -11.7500  11.0000  13.5000 Du        
  11714 ****       -11.7500  11.0000  13.7500 Du        
  11715 ****       -11.7500  11.0000  14.0000 Du        
  11716 ****       -11.7500  11.2500  11.7500 Du        
  11717 ****       -11.7500  11.2500  12.0000 Du        
  11718 ****       -11.7500  11.2500  12.2500 Du        
  11719 ****       -11.7500  11.2500  12.5000 Du        
  11720 ****       -11.7500  11.2500  12.7500 Du        
  11721 ****       -11.7500  11.2500  13.0000 Du        
  11722 ****       -11.7500  11.2500  13.2500 Du        
  11723 ****       -11.7500  11.2500  13.5000 Du        
  11724 ****       -11.7500  11.2500  13.7500 Du        
  11725 ****       -11.7500  11.2500  14.0000 Du        
  11726 ****       -11.7500  11.5000  11.7500 Du        
  11727 ****       -11.7500  11.5000  12.0000 Du        
  11728 ****       -11.7500  11.5000  12.2500 Du        
  11729 ****       -11.7500  11.5000  12.5000 Du        
  11730 ****       -11.7500  11.5000  12.7500 Du        
  11731 ****       -11.7500  11.5000  13.0000 Du        
  11732 ****       -11.7500  11.5000  13.2500 Du        
  11733 ****       -11.7500  11.5000  13.5000 Du        
  11734 ****       -11.7500  11.5000  13.7500 Du        
  11735 ****       -11.7500  11.5000  14.0000 Du        
  11736 ****       -11.7500  11.7500  11.5000 Du        
  11737 ****       -11.7500  11.7500  11.7500 Du        
  11738 ****       -11.7500  11.7500  12.0000 Du        
  11739 ****       -11.7500  11.7500  12.2500 Du        
  11740 ****       -11.7500  11.7500  12.5000 Du        
  11741 ****       -11.7500  11.7500  12.7500 Du        
  11742 ****       -11.7500  11.7500  13.0000 Du        
  11743 ****       -11.7500  11.7500  13.2500 Du        
  11744 ****       -11.7500  11.7500  13.5000 Du        
  11745 ****       -11.7500  11.7500  13.7500 Du        
  11746 ****       -11.7500  11.7500  14.0000 Du        
  11747 ****       -11.7500  11.7500  14.2500 Du        
  11748 ****       -11.7500  12.0000  11.7500 Du        
  11749 ****       -11.7500  12.0000  12.0000 Du        
  11750 ****       -11.7500  12.0000  12.2500 Du        
  11751 ****       -11.7500  12.0000  12.5000 Du        
  11752 ****       -11.7500  12.0000  12.7500 Du        
  11753 ****       -11.7500  12.0000  13.0000 Du        
  11754 ****       -11.7500  12.0000  13.2500 Du        
  11755 ****       -11.7500  12.0000  13.5000 Du        
  11756 ****       -11.7500  12.0000  13.7500 Du        
  11757 ****       -11.7500  12.0000  14.0000 Du        
  11758 ****       -11.7500  12.0000  14.2500 Du        
  11759 ****       -11.7500  12.2500  12.5000 Du        
  11760 ****       -11.7500  12.2500  12.7500 Du        
  11761 ****       -11.7500  12.2500  13.0000 Du        
  11762 ****       -11.7500  12.2500  13.2500 Du        
  11763 ****       -11.7500  12.2500  13.5000 Du        
  11764 ****       -11.7500  12.2500  13.7500 Du        
  11765 ****       -11.7500  12.2500  14.0000 Du        
  11766 ****       -11.7500  12.2500  14.2500 Du        
  11767 ****       -11.7500  12.2500  28.0000 Du        
  11768 ****       -11.7500  12.2500  28.2500 Du        
  11769 ****       -11.7500  12.5000  13.5000 Du        
  11770 ****       -11.7500  12.5000  13.7500 Du        
  11771 ****       -11.7500  12.5000  14.0000 Du        
  11772 ****       -11.7500  12.5000  27.5000 Du        
  11773 ****       -11.7500  12.5000  27.7500 Du        
  11774 ****       -11.7500  12.5000  28.0000 Du        
  11775 ****       -11.7500  12.5000  28.2500 Du        
  11776 ****       -11.7500  12.7500  26.7500 Du        
  11777 ****       -11.7500  12.7500  27.0000 Du        
  11778 ****       -11.7500  12.7500  27.2500 Du        
  11779 ****       -11.7500  12.7500  27.5000 Du        
  11780 ****       -11.7500  12.7500  27.7500 Du        
  11781 ****       -11.7500  12.7500  28.0000 Du        
  11782 ****       -11.7500  12.7500  28.2500 Du        
  11783 ****       -11.7500  13.0000  25.5000 Du        
  11784 ****       -11.7500  13.0000  25.7500 Du        
  11785 ****       -11.7500  13.0000  26.0000 Du        
  11786 ****       -11.7500  13.0000  26.2500 Du        
  11787 ****       -11.7500  13.0000  26.5000 Du        
  11788 ****       -11.7500  13.0000  26.7500 Du        
  11789 ****       -11.7500  13.0000  27.0000 Du        
  11790 ****       -11.7500  13.0000  27.2500 Du        
  11791 ****       -11.7500  13.0000  27.5000 Du        
  11792 ****       -11.7500  13.0000  27.7500 Du        
  11793 ****       -11.7500  13.0000  28.0000 Du        
  11794 ****       -11.7500  13.0000  28.2500 Du        
  11795 ****       -11.7500  13.2500  25.0000 Du        
  11796 ****       -11.7500  13.2500  25.2500 Du        
  11797 ****       -11.7500  13.2500  25.5000 Du        
  11798 ****       -11.7500  13.2500  25.7500 Du        
  11799 ****       -11.7500  13.2500  26.0000 Du        
  11800 ****       -11.7500  13.2500  26.2500 Du        
  11801 ****       -11.7500  13.2500  26.5000 Du        
  11802 ****       -11.7500  13.2500  26.7500 Du        
  11803 ****       -11.7500  13.2500  27.0000 Du        
  11804 ****       -11.7500  13.2500  27.2500 Du        
  11805 ****       -11.7500  13.2500  27.5000 Du        
  11806 ****       -11.7500  13.2500  27.7500 Du        
  11807 ****       -11.7500  13.2500  28.0000 Du        
  11808 ****       -11.7500  13.2500  28.2500 Du        
  11809 ****       -11.7500  13.5000  24.7500 Du        
  11810 ****       -11.7500  13.5000  25.0000 Du        
  11811 ****       -11.7500  13.5000  25.2500 Du        
  11812 ****       -11.7500  13.5000  25.5000 Du        
  11813 ****       -11.7500  13.5000  25.7500 Du        
  11814 ****       -11.7500  13.5000  26.0000 Du        
  11815 ****       -11.7500  13.5000  26.2500 Du        
  11816 ****       -11.7500  13.5000  26.5000 Du        
  11817 ****       -11.7500  13.5000  26.7500 Du        
  11818 ****       -11.7500  13.5000  27.0000 Du        
  11819 ****       -11.7500  13.5000  27.2500 Du        
  11820 ****       -11.7500  13.5000  27.5000 Du        
  11821 ****       -11.7500  13.5000  27.7500 Du        
  11822 ****       -11.7500  13.5000  28.0000 Du        
  11823 ****       -11.7500  13.7500  24.7500 Du        
  11824 ****       -11.7500  13.7500  25.0000 Du        
  11825 ****       -11.7500  13.7500  25.2500 Du        
  11826 ****       -11.7500  13.7500  25.5000 Du        
  11827 ****       -11.7500  13.7500  25.7500 Du        
  11828 ****       -11.7500  13.7500  26.0000 Du        
  11829 ****       -11.7500  13.7500  26.2500 Du        
  11830 ****       -11.7500  13.7500  26.5000 Du        
  11831 ****       -11.7500  13.7500  26.7500 Du        
  11832 ****       -11.7500  13.7500  27.0000 Du        
  11833 ****       -11.7500  13.7500  27.2500 Du        
  11834 ****       -11.7500  13.7500  27.5000 Du        
  11835 ****       -11.7500  13.7500  27.7500 Du        
  11836 ****       -11.7500  13.7500  28.0000 Du        
  11837 ****       -11.7500  14.0000  26.5000 Du        
  11838 ****       -11.7500  14.0000  26.7500 Du        
  11839 ****       -11.7500  14.0000  27.0000 Du        
  11840 ****       -11.7500  14.0000  27.2500 Du        
  11841 ****       -11.7500  14.0000  27.5000 Du        
  11842 ****       -11.7500  14.0000  27.7500 Du        
  11843 ****       -11.5000 -20.0000  30.7500 Du        
  11844 ****       -11.5000 -20.0000  31.0000 Du        
  11845 ****       -11.5000 -20.0000  31.2500 Du        
  11846 ****       -11.5000 -20.0000  31.5000 Du        
  11847 ****       -11.5000 -20.0000  31.7500 Du        
  11848 ****       -11.5000 -20.0000  32.0000 Du        
  11849 ****       -11.5000 -20.0000  32.2500 Du        
  11850 ****       -11.5000 -19.7500  30.7500 Du        
  11851 ****       -11.5000 -19.7500  31.0000 Du        
  11852 ****       -11.5000 -19.7500  31.2500 Du        
  11853 ****       -11.5000 -19.7500  31.5000 Du        
  11854 ****       -11.5000 -19.7500  31.7500 Du        
  11855 ****       -11.5000 -19.7500  32.0000 Du        
  11856 ****       -11.5000 -19.7500  32.2500 Du        
  11857 ****       -11.5000 -19.5000  31.0000 Du        
  11858 ****       -11.5000 -19.5000  31.2500 Du        
  11859 ****       -11.5000 -19.5000  31.5000 Du        
  11860 ****       -11.5000 -19.2500  31.2500 Du        
  11861 ****       -11.5000 -16.2500  25.0000 Du        
  11862 ****       -11.5000 -16.2500  25.2500 Du        
  11863 ****       -11.5000   1.7500  16.7500 Du        
  11864 ****       -11.5000   1.7500  17.0000 Du        
  11865 ****       -11.5000   1.7500  17.2500 Du        
  11866 ****       -11.5000   1.7500  17.5000 Du        
  11867 ****       -11.5000   1.7500  17.7500 Du        
  11868 ****       -11.5000   1.7500  18.0000 Du        
  11869 ****       -11.5000   1.7500  18.2500 Du        
  11870 ****       -11.5000   2.0000  16.7500 Du        
  11871 ****       -11.5000   2.0000  17.0000 Du        
  11872 ****       -11.5000   2.0000  17.2500 Du        
  11873 ****       -11.5000   2.0000  17.5000 Du        
  11874 ****       -11.5000   2.0000  17.7500 Du        
  11875 ****       -11.5000   2.0000  18.0000 Du        
  11876 ****       -11.5000   2.0000  18.2500 Du        
  11877 ****       -11.5000   2.0000  18.5000 Du        
  11878 ****       -11.5000   2.0000  18.7500 Du        
  11879 ****       -11.5000   2.0000  19.0000 Du        
  11880 ****       -11.5000   2.2500  16.7500 Du        
  11881 ****       -11.5000   2.2500  17.0000 Du        
  11882 ****       -11.5000   2.2500  17.2500 Du        
  11883 ****       -11.5000   2.2500  17.5000 Du        
  11884 ****       -11.5000   2.2500  17.7500 Du        
  11885 ****       -11.5000   2.2500  18.0000 Du        
  11886 ****       -11.5000   2.2500  18.2500 Du        
  11887 ****       -11.5000   2.2500  18.5000 Du        
  11888 ****       -11.5000   2.2500  18.7500 Du        
  11889 ****       -11.5000   2.2500  19.0000 Du        
  11890 ****       -11.5000   2.5000  16.7500 Du        
  11891 ****       -11.5000   2.5000  17.0000 Du        
  11892 ****       -11.5000   2.5000  17.2500 Du        
  11893 ****       -11.5000   2.5000  17.5000 Du        
  11894 ****       -11.5000   2.5000  17.7500 Du        
  11895 ****       -11.5000   2.5000  18.0000 Du        
  11896 ****       -11.5000   2.5000  18.2500 Du        
  11897 ****       -11.5000   2.7500  16.7500 Du        
  11898 ****       -11.5000   2.7500  17.0000 Du        
  11899 ****       -11.5000   2.7500  17.2500 Du        
  11900 ****       -11.5000   2.7500  17.5000 Du        
  11901 ****       -11.5000   2.7500  17.7500 Du        
  11902 ****       -11.5000   2.7500  18.0000 Du        
  11903 ****       -11.5000   3.0000  16.7500 Du        
  11904 ****       -11.5000   3.0000  17.0000 Du        
  11905 ****       -11.5000   3.0000  17.2500 Du        
  11906 ****       -11.5000   3.0000  17.5000 Du        
  11907 ****       -11.5000   3.0000  17.7500 Du        
  11908 ****       -11.5000   3.2500  16.7500 Du        
  11909 ****       -11.5000   3.2500  17.0000 Du        
  11910 ****       -11.5000   3.2500  17.2500 Du        
  11911 ****       -11.5000   3.5000  17.0000 Du        
  11912 ****       -11.5000   7.0000  22.0000 Du        
  11913 ****       -11.5000   7.0000  22.2500 Du        
  11914 ****       -11.5000   7.2500  21.7500 Du        
  11915 ****       -11.5000   7.2500  22.0000 Du        
  11916 ****       -11.5000   7.2500  22.2500 Du        
  11917 ****       -11.5000   7.5000  21.5000 Du        
  11918 ****       -11.5000   7.5000  21.7500 Du        
  11919 ****       -11.5000   7.5000  22.0000 Du        
  11920 ****       -11.5000   7.5000  22.2500 Du        
  11921 ****       -11.5000   7.5000  22.5000 Du        
  11922 ****       -11.5000   7.7500  21.2500 Du        
  11923 ****       -11.5000   7.7500  21.5000 Du        
  11924 ****       -11.5000   7.7500  21.7500 Du        
  11925 ****       -11.5000   7.7500  22.0000 Du        
  11926 ****       -11.5000   7.7500  22.2500 Du        
  11927 ****       -11.5000   8.0000  21.0000 Du        
  11928 ****       -11.5000   8.0000  21.2500 Du        
  11929 ****       -11.5000   8.0000  21.5000 Du        
  11930 ****       -11.5000   8.0000  21.7500 Du        
  11931 ****       -11.5000   8.0000  22.0000 Du        
  11932 ****       -11.5000   8.0000  22.2500 Du        
  11933 ****       -11.5000   8.2500  21.0000 Du        
  11934 ****       -11.5000   8.2500  21.2500 Du        
  11935 ****       -11.5000   8.2500  21.5000 Du        
  11936 ****       -11.5000   8.2500  21.7500 Du        
  11937 ****       -11.5000   8.2500  22.0000 Du        
  11938 ****       -11.5000   8.5000  21.2500 Du        
  11939 ****       -11.5000   8.5000  21.5000 Du        
  11940 ****       -11.5000   8.5000  21.7500 Du        
  11941 ****       -11.5000   8.7500  21.5000 Du        
  11942 ****       -11.5000  10.7500  12.2500 Du        
  11943 ****       -11.5000  10.7500  12.5000 Du        
  11944 ****       -11.5000  10.7500  12.7500 Du        
  11945 ****       -11.5000  10.7500  13.0000 Du        
  11946 ****       -11.5000  10.7500  13.2500 Du        
  11947 ****       -11.5000  10.7500  13.5000 Du        
  11948 ****       -11.5000  10.7500  13.7500 Du        
  11949 ****       -11.5000  11.0000  11.7500 Du        
  11950 ****       -11.5000  11.0000  12.0000 Du        
  11951 ****       -11.5000  11.0000  12.2500 Du        
  11952 ****       -11.5000  11.0000  12.5000 Du        
  11953 ****       -11.5000  11.0000  12.7500 Du        
  11954 ****       -11.5000  11.0000  13.0000 Du        
  11955 ****       -11.5000  11.0000  13.2500 Du        
  11956 ****       -11.5000  11.0000  13.5000 Du        
  11957 ****       -11.5000  11.0000  13.7500 Du        
  11958 ****       -11.5000  11.2500  11.7500 Du        
  11959 ****       -11.5000  11.2500  12.0000 Du        
  11960 ****       -11.5000  11.2500  12.2500 Du        
  11961 ****       -11.5000  11.2500  12.5000 Du        
  11962 ****       -11.5000  11.2500  12.7500 Du        
  11963 ****       -11.5000  11.2500  13.0000 Du        
  11964 ****       -11.5000  11.2500  13.2500 Du        
  11965 ****       -11.5000  11.2500  13.5000 Du        
  11966 ****       -11.5000  11.2500  13.7500 Du        
  11967 ****       -11.5000  11.5000  11.5000 Du        
  11968 ****       -11.5000  11.5000  11.7500 Du        
  11969 ****       -11.5000  11.5000  12.0000 Du        
  11970 ****       -11.5000  11.5000  12.2500 Du        
  11971 ****       -11.5000  11.5000  12.5000 Du        
  11972 ****       -11.5000  11.5000  12.7500 Du        
  11973 ****       -11.5000  11.5000  13.0000 Du        
  11974 ****       -11.5000  11.5000  13.2500 Du        
  11975 ****       -11.5000  11.5000  13.5000 Du        
  11976 ****       -11.5000  11.5000  13.7500 Du        
  11977 ****       -11.5000  11.7500  11.5000 Du        
  11978 ****       -11.5000  11.7500  11.7500 Du        
  11979 ****       -11.5000  11.7500  12.0000 Du        
  11980 ****       -11.5000  11.7500  12.2500 Du        
  11981 ****       -11.5000  11.7500  12.5000 Du        
  11982 ****       -11.5000  11.7500  12.7500 Du        
  11983 ****       -11.5000  11.7500  13.0000 Du        
  11984 ****       -11.5000  11.7500  13.2500 Du        
  11985 ****       -11.5000  11.7500  13.5000 Du        
  11986 ****       -11.5000  11.7500  13.7500 Du        
  11987 ****       -11.5000  12.0000  11.7500 Du        
  11988 ****       -11.5000  12.0000  12.0000 Du        
  11989 ****       -11.5000  12.0000  12.2500 Du        
  11990 ****       -11.5000  12.0000  12.5000 Du        
  11991 ****       -11.5000  12.0000  12.7500 Du        
  11992 ****       -11.5000  12.0000  13.0000 Du        
  11993 ****       -11.5000  12.0000  13.2500 Du        
  11994 ****       -11.5000  12.2500  28.2500 Du        
  11995 ****       -11.5000  12.5000  27.7500 Du        
  11996 ****       -11.5000  12.5000  28.0000 Du        
  11997 ****       -11.5000  12.5000  28.2500 Du        
  11998 ****       -11.5000  12.7500  27.0000 Du        
  11999 ****       -11.5000  12.7500  27.2500 Du        
  12000 ****       -11.5000  12.7500  27.5000 Du        
  12001 ****       -11.5000  12.7500  27.7500 Du        
  12002 ****       -11.5000  12.7500  28.0000 Du        
  12003 ****       -11.5000  12.7500  28.2500 Du        
  12004 ****       -11.5000  13.0000  26.0000 Du        
  12005 ****       -11.5000  13.0000  26.2500 Du        
  12006 ****       -11.5000  13.0000  26.5000 Du        
  12007 ****       -11.5000  13.0000  26.7500 Du        
  12008 ****       -11.5000  13.0000  27.0000 Du        
  12009 ****       -11.5000  13.0000  27.2500 Du        
  12010 ****       -11.5000  13.0000  27.5000 Du        
  12011 ****       -11.5000  13.0000  27.7500 Du        
  12012 ****       -11.5000  13.0000  28.0000 Du        
  12013 ****       -11.5000  13.0000  28.2500 Du        
  12014 ****       -11.5000  13.2500  25.2500 Du        
  12015 ****       -11.5000  13.2500  25.5000 Du        
  12016 ****       -11.5000  13.2500  25.7500 Du        
  12017 ****       -11.5000  13.2500  26.0000 Du        
  12018 ****       -11.5000  13.2500  26.2500 Du        
  12019 ****       -11.5000  13.2500  26.5000 Du        
  12020 ****       -11.5000  13.2500  26.7500 Du        
  12021 ****       -11.5000  13.2500  27.0000 Du        
  12022 ****       -11.5000  13.2500  27.2500 Du        
  12023 ****       -11.5000  13.2500  27.5000 Du        
  12024 ****       -11.5000  13.2500  27.7500 Du        
  12025 ****       -11.5000  13.2500  28.0000 Du        
  12026 ****       -11.5000  13.2500  28.2500 Du        
  12027 ****       -11.5000  13.5000  25.0000 Du        
  12028 ****       -11.5000  13.5000  25.2500 Du        
  12029 ****       -11.5000  13.5000  25.5000 Du        
  12030 ****       -11.5000  13.5000  25.7500 Du        
  12031 ****       -11.5000  13.5000  26.0000 Du        
  12032 ****       -11.5000  13.5000  26.2500 Du        
  12033 ****       -11.5000  13.5000  26.5000 Du        
  12034 ****       -11.5000  13.5000  26.7500 Du        
  12035 ****       -11.5000  13.5000  27.0000 Du        
  12036 ****       -11.5000  13.5000  27.2500 Du        
  12037 ****       -11.5000  13.5000  27.5000 Du        
  12038 ****       -11.5000  13.5000  27.7500 Du        
  12039 ****       -11.5000  13.5000  28.0000 Du        
  12040 ****       -11.5000  13.7500  24.7500 Du        
  12041 ****       -11.5000  13.7500  25.0000 Du        
  12042 ****       -11.5000  13.7500  25.2500 Du        
  12043 ****       -11.5000  13.7500  25.5000 Du        
  12044 ****       -11.5000  13.7500  25.7500 Du        
  12045 ****       -11.5000  13.7500  26.0000 Du        
  12046 ****       -11.5000  13.7500  26.2500 Du        
  12047 ****       -11.5000  13.7500  26.5000 Du        
  12048 ****       -11.5000  13.7500  26.7500 Du        
  12049 ****       -11.5000  13.7500  27.0000 Du        
  12050 ****       -11.5000  13.7500  27.2500 Du        
  12051 ****       -11.5000  13.7500  27.5000 Du        
  12052 ****       -11.5000  13.7500  27.7500 Du        
  12053 ****       -11.5000  13.7500  28.0000 Du        
  12054 ****       -11.5000  14.0000  24.7500 Du        
  12055 ****       -11.5000  14.0000  25.0000 Du        
  12056 ****       -11.5000  14.0000  26.0000 Du        
  12057 ****       -11.5000  14.0000  26.2500 Du        
  12058 ****       -11.5000  14.0000  26.5000 Du        
  12059 ****       -11.5000  14.0000  26.7500 Du        
  12060 ****       -11.5000  14.0000  27.0000 Du        
  12061 ****       -11.5000  14.0000  27.2500 Du        
  12062 ****       -11.5000  14.0000  27.5000 Du        
  12063 ****       -11.5000  14.0000  27.7500 Du        
  12064 ****       -11.5000  14.2500  27.0000 Du        
  12065 ****       -11.5000  14.2500  27.2500 Du        
  12066 ****       -11.5000  14.2500  27.5000 Du        
  12067 ****       -11.5000  14.2500  27.7500 Du        
  12068 ****       -11.2500 -20.2500  31.2500 Du        
  12069 ****       -11.2500 -20.2500  31.5000 Du        
  12070 ****       -11.2500 -20.2500  31.7500 Du        
  12071 ****       -11.2500 -20.2500  32.0000 Du        
  12072 ****       -11.2500 -20.2500  32.2500 Du        
  12073 ****       -11.2500 -20.0000  30.7500 Du        
  12074 ****       -11.2500 -20.0000  31.0000 Du        
  12075 ****       -11.2500 -20.0000  31.2500 Du        
  12076 ****       -11.2500 -20.0000  31.5000 Du        
  12077 ****       -11.2500 -20.0000  31.7500 Du        
  12078 ****       -11.2500 -20.0000  32.0000 Du        
  12079 ****       -11.2500 -20.0000  32.2500 Du        
  12080 ****       -11.2500 -19.7500  24.5000 Du        
  12081 ****       -11.2500 -19.7500  24.7500 Du        
  12082 ****       -11.2500 -19.7500  30.7500 Du        
  12083 ****       -11.2500 -19.7500  31.0000 Du        
  12084 ****       -11.2500 -19.7500  31.2500 Du        
  12085 ****       -11.2500 -19.7500  31.5000 Du        
  12086 ****       -11.2500 -19.7500  31.7500 Du        
  12087 ****       -11.2500 -19.7500  32.0000 Du        
  12088 ****       -11.2500 -19.7500  32.2500 Du        
  12089 ****       -11.2500 -19.7500  32.5000 Du        
  12090 ****       -11.2500 -19.5000  24.5000 Du        
  12091 ****       -11.2500 -19.5000  24.7500 Du        
  12092 ****       -11.2500 -19.5000  30.7500 Du        
  12093 ****       -11.2500 -19.5000  31.0000 Du        
  12094 ****       -11.2500 -19.5000  31.2500 Du        
  12095 ****       -11.2500 -19.5000  31.5000 Du        
  12096 ****       -11.2500 -19.5000  31.7500 Du        
  12097 ****       -11.2500 -19.5000  32.0000 Du        
  12098 ****       -11.2500 -19.2500  24.5000 Du        
  12099 ****       -11.2500 -19.2500  24.7500 Du        
  12100 ****       -11.2500 -19.2500  30.7500 Du        
  12101 ****       -11.2500 -19.2500  31.0000 Du        
  12102 ****       -11.2500 -19.2500  31.2500 Du        
  12103 ****       -11.2500 -19.2500  31.5000 Du        
  12104 ****       -11.2500 -16.7500  25.0000 Du        
  12105 ****       -11.2500 -16.7500  25.2500 Du        
  12106 ****       -11.2500 -16.5000  24.7500 Du        
  12107 ****       -11.2500 -16.5000  25.0000 Du        
  12108 ****       -11.2500 -16.5000  25.2500 Du        
  12109 ****       -11.2500 -16.5000  25.5000 Du        
  12110 ****       -11.2500 -16.2500  24.7500 Du        
  12111 ****       -11.2500 -16.2500  25.0000 Du        
  12112 ****       -11.2500 -16.2500  25.2500 Du        
  12113 ****       -11.2500 -16.2500  25.5000 Du        
  12114 ****       -11.2500 -16.2500  25.7500 Du        
  12115 ****       -11.2500 -16.0000  25.0000 Du        
  12116 ****       -11.2500 -16.0000  25.2500 Du        
  12117 ****       -11.2500 -16.0000  25.5000 Du        
  12118 ****       -11.2500 -16.0000  25.7500 Du        
  12119 ****       -11.2500 -16.0000  26.0000 Du        
  12120 ****       -11.2500   2.0000  16.7500 Du        
  12121 ****       -11.2500   2.0000  17.0000 Du        
  12122 ****       -11.2500   2.0000  17.2500 Du        
  12123 ****       -11.2500   2.0000  17.5000 Du        
  12124 ****       -11.2500   2.0000  17.7500 Du        
  12125 ****       -11.2500   2.0000  18.0000 Du        
  12126 ****       -11.2500   2.0000  18.2500 Du        
  12127 ****       -11.2500   2.2500  16.7500 Du        
  12128 ****       -11.2500   2.2500  17.0000 Du        
  12129 ****       -11.2500   2.2500  17.2500 Du        
  12130 ****       -11.2500   2.2500  17.5000 Du        
  12131 ****       -11.2500   2.2500  17.7500 Du        
  12132 ****       -11.2500   2.2500  18.0000 Du        
  12133 ****       -11.2500   2.2500  18.2500 Du        
  12134 ****       -11.2500   2.5000  16.7500 Du        
  12135 ****       -11.2500   2.5000  17.0000 Du        
  12136 ****       -11.2500   2.5000  17.2500 Du        
  12137 ****       -11.2500   2.5000  17.5000 Du        
  12138 ****       -11.2500   2.5000  17.7500 Du        
  12139 ****       -11.2500   2.5000  18.0000 Du        
  12140 ****       -11.2500   2.7500  16.7500 Du        
  12141 ****       -11.2500   2.7500  17.0000 Du        
  12142 ****       -11.2500   2.7500  17.2500 Du        
  12143 ****       -11.2500   2.7500  17.5000 Du        
  12144 ****       -11.2500   2.7500  17.7500 Du        
  12145 ****       -11.2500   3.0000  16.7500 Du        
  12146 ****       -11.2500   3.0000  17.0000 Du        
  12147 ****       -11.2500   3.0000  17.2500 Du        
  12148 ****       -11.2500   3.0000  17.5000 Du        
  12149 ****       -11.2500   3.2500  16.7500 Du        
  12150 ****       -11.2500   3.2500  17.0000 Du        
  12151 ****       -11.2500   3.2500  17.2500 Du        
  12152 ****       -11.2500   7.0000  22.2500 Du        
  12153 ****       -11.2500   7.2500  22.0000 Du        
  12154 ****       -11.2500   7.2500  22.2500 Du        
  12155 ****       -11.2500   7.5000  21.7500 Du        
  12156 ****       -11.2500   7.5000  22.0000 Du        
  12157 ****       -11.2500   7.5000  22.2500 Du        
  12158 ****       -11.2500   7.5000  22.5000 Du        
  12159 ****       -11.2500   7.7500  21.7500 Du        
  12160 ****       -11.2500   7.7500  22.0000 Du        
  12161 ****       -11.2500   7.7500  22.2500 Du        
  12162 ****       -11.2500   8.0000  21.2500 Du        
  12163 ****       -11.2500   8.0000  21.5000 Du        
  12164 ****       -11.2500   8.0000  21.7500 Du        
  12165 ****       -11.2500   8.0000  22.0000 Du        
  12166 ****       -11.2500   8.0000  22.2500 Du        
  12167 ****       -11.2500   8.2500  21.2500 Du        
  12168 ****       -11.2500   8.2500  21.5000 Du        
  12169 ****       -11.2500   8.2500  21.7500 Du        
  12170 ****       -11.2500   8.2500  22.0000 Du        
  12171 ****       -11.2500   8.5000  21.2500 Du        
  12172 ****       -11.2500   8.5000  21.5000 Du        
  12173 ****       -11.2500   8.5000  21.7500 Du        
  12174 ****       -11.2500  10.7500  12.5000 Du        
  12175 ****       -11.2500  10.7500  12.7500 Du        
  12176 ****       -11.2500  11.0000  11.5000 Du        
  12177 ****       -11.2500  11.0000  11.7500 Du        
  12178 ****       -11.2500  11.0000  12.0000 Du        
  12179 ****       -11.2500  11.0000  12.2500 Du        
  12180 ****       -11.2500  11.0000  12.5000 Du        
  12181 ****       -11.2500  11.0000  12.7500 Du        
  12182 ****       -11.2500  11.0000  13.0000 Du        
  12183 ****       -11.2500  11.2500  11.5000 Du        
  12184 ****       -11.2500  11.2500  11.7500 Du        
  12185 ****       -11.2500  11.2500  12.0000 Du        
  12186 ****       -11.2500  11.2500  12.2500 Du        
  12187 ****       -11.2500  11.2500  12.5000 Du        
  12188 ****       -11.2500  11.2500  12.7500 Du        
  12189 ****       -11.2500  11.2500  13.0000 Du        
  12190 ****       -11.2500  11.5000  11.5000 Du        
  12191 ****       -11.2500  11.5000  11.7500 Du        
  12192 ****       -11.2500  11.5000  12.0000 Du        
  12193 ****       -11.2500  11.5000  12.2500 Du        
  12194 ****       -11.2500  11.5000  12.5000 Du        
  12195 ****       -11.2500  11.5000  12.7500 Du        
  12196 ****       -11.2500  11.5000  13.0000 Du        
  12197 ****       -11.2500  11.7500  11.7500 Du        
  12198 ****       -11.2500  11.7500  12.0000 Du        
  12199 ****       -11.2500  11.7500  12.2500 Du        
  12200 ****       -11.2500  11.7500  12.5000 Du        
  12201 ****       -11.2500  11.7500  12.7500 Du        
  12202 ****       -11.2500  12.5000  28.0000 Du        
  12203 ****       -11.2500  12.5000  28.2500 Du        
  12204 ****       -11.2500  12.7500  27.2500 Du        
  12205 ****       -11.2500  12.7500  27.5000 Du        
  12206 ****       -11.2500  12.7500  27.7500 Du        
  12207 ****       -11.2500  12.7500  28.0000 Du        
  12208 ****       -11.2500  12.7500  28.2500 Du        
  12209 ****       -11.2500  13.0000  26.7500 Du        
  12210 ****       -11.2500  13.0000  27.0000 Du        
  12211 ****       -11.2500  13.0000  27.2500 Du        
  12212 ****       -11.2500  13.0000  27.5000 Du        
  12213 ****       -11.2500  13.0000  27.7500 Du        
  12214 ****       -11.2500  13.0000  28.0000 Du        
  12215 ****       -11.2500  13.0000  28.2500 Du        
  12216 ****       -11.2500  13.2500  26.0000 Du        
  12217 ****       -11.2500  13.2500  26.2500 Du        
  12218 ****       -11.2500  13.2500  26.5000 Du        
  12219 ****       -11.2500  13.2500  26.7500 Du        
  12220 ****       -11.2500  13.2500  27.0000 Du        
  12221 ****       -11.2500  13.2500  27.2500 Du        
  12222 ****       -11.2500  13.2500  27.5000 Du        
  12223 ****       -11.2500  13.2500  27.7500 Du        
  12224 ****       -11.2500  13.2500  28.0000 Du        
  12225 ****       -11.2500  13.2500  28.2500 Du        
  12226 ****       -11.2500  13.5000  25.2500 Du        
  12227 ****       -11.2500  13.5000  25.5000 Du        
  12228 ****       -11.2500  13.5000  25.7500 Du        
  12229 ****       -11.2500  13.5000  26.0000 Du        
  12230 ****       -11.2500  13.5000  26.2500 Du        
  12231 ****       -11.2500  13.5000  26.5000 Du        
  12232 ****       -11.2500  13.5000  26.7500 Du        
  12233 ****       -11.2500  13.5000  27.0000 Du        
  12234 ****       -11.2500  13.5000  27.2500 Du        
  12235 ****       -11.2500  13.5000  27.5000 Du        
  12236 ****       -11.2500  13.5000  27.7500 Du        
  12237 ****       -11.2500  13.5000  28.0000 Du        
  12238 ****       -11.2500  13.7500  25.0000 Du        
  12239 ****       -11.2500  13.7500  25.2500 Du        
  12240 ****       -11.2500  13.7500  25.5000 Du        
  12241 ****       -11.2500  13.7500  25.7500 Du        
  12242 ****       -11.2500  13.7500  26.0000 Du        
  12243 ****       -11.2500  13.7500  26.2500 Du        
  12244 ****       -11.2500  13.7500  26.5000 Du        
  12245 ****       -11.2500  13.7500  26.7500 Du        
  12246 ****       -11.2500  13.7500  27.0000 Du        
  12247 ****       -11.2500  13.7500  27.2500 Du        
  12248 ****       -11.2500  13.7500  27.5000 Du        
  12249 ****       -11.2500  13.7500  27.7500 Du        
  12250 ****       -11.2500  13.7500  28.0000 Du        
  12251 ****       -11.2500  14.0000  24.7500 Du        
  12252 ****       -11.2500  14.0000  25.0000 Du        
  12253 ****       -11.2500  14.0000  25.2500 Du        
  12254 ****       -11.2500  14.0000  25.5000 Du        
  12255 ****       -11.2500  14.0000  25.7500 Du        
  12256 ****       -11.2500  14.0000  26.0000 Du        
  12257 ****       -11.2500  14.0000  26.2500 Du        
  12258 ****       -11.2500  14.0000  26.5000 Du        
  12259 ****       -11.2500  14.0000  26.7500 Du        
  12260 ****       -11.2500  14.0000  27.0000 Du        
  12261 ****       -11.2500  14.0000  27.2500 Du        
  12262 ****       -11.2500  14.0000  27.5000 Du        
  12263 ****       -11.2500  14.0000  27.7500 Du        
  12264 ****       -11.2500  14.2500  26.7500 Du        
  12265 ****       -11.2500  14.2500  27.0000 Du        
  12266 ****       -11.2500  14.2500  27.2500 Du        
  12267 ****       -11.2500  14.2500  27.5000 Du        
  12268 ****       -11.2500  14.2500  27.7500 Du        
  12269 ****       -11.0000 -23.2500  26.7500 Du        
  12270 ****       -11.0000 -23.0000  26.5000 Du        
  12271 ****       -11.0000 -23.0000  26.7500 Du        
  12272 ****       -11.0000 -22.7500  26.5000 Du        
  12273 ****       -11.0000 -22.7500  26.7500 Du        
  12274 ****       -11.0000 -22.5000  26.5000 Du        
  12275 ****       -11.0000 -22.5000  26.7500 Du        
  12276 ****       -11.0000 -20.2500  31.0000 Du        
  12277 ****       -11.0000 -20.2500  31.2500 Du        
  12278 ****       -11.0000 -20.2500  31.5000 Du        
  12279 ****       -11.0000 -20.2500  31.7500 Du        
  12280 ****       -11.0000 -20.2500  32.0000 Du        
  12281 ****       -11.0000 -20.2500  32.2500 Du        
  12282 ****       -11.0000 -20.0000  24.7500 Du        
  12283 ****       -11.0000 -20.0000  25.0000 Du        
  12284 ****       -11.0000 -20.0000  25.2500 Du        
  12285 ****       -11.0000 -20.0000  30.7500 Du        
  12286 ****       -11.0000 -20.0000  31.0000 Du        
  12287 ****       -11.0000 -20.0000  31.2500 Du        
  12288 ****       -11.0000 -20.0000  31.5000 Du        
  12289 ****       -11.0000 -20.0000  31.7500 Du        
  12290 ****       -11.0000 -20.0000  32.0000 Du        
  12291 ****       -11.0000 -20.0000  32.2500 Du        
  12292 ****       -11.0000 -19.7500  24.5000 Du        
  12293 ****       -11.0000 -19.7500  24.7500 Du        
  12294 ****       -11.0000 -19.7500  25.0000 Du        
  12295 ****       -11.0000 -19.7500  25.2500 Du        
  12296 ****       -11.0000 -19.7500  30.7500 Du        
  12297 ****       -11.0000 -19.7500  31.0000 Du        
  12298 ****       -11.0000 -19.7500  31.2500 Du        
  12299 ****       -11.0000 -19.7500  31.5000 Du        
  12300 ****       -11.0000 -19.7500  31.7500 Du        
  12301 ****       -11.0000 -19.7500  32.0000 Du        
  12302 ****       -11.0000 -19.7500  32.2500 Du        
  12303 ****       -11.0000 -19.7500  32.5000 Du        
  12304 ****       -11.0000 -19.5000  24.2500 Du        
  12305 ****       -11.0000 -19.5000  24.5000 Du        
  12306 ****       -11.0000 -19.5000  24.7500 Du        
  12307 ****       -11.0000 -19.5000  25.0000 Du        
  12308 ****       -11.0000 -19.5000  25.2500 Du        
  12309 ****       -11.0000 -19.5000  30.7500 Du        
  12310 ****       -11.0000 -19.5000  31.0000 Du        
  12311 ****       -11.0000 -19.5000  31.2500 Du        
  12312 ****       -11.0000 -19.5000  31.5000 Du        
  12313 ****       -11.0000 -19.5000  31.7500 Du        
  12314 ****       -11.0000 -19.5000  32.0000 Du        
  12315 ****       -11.0000 -19.5000  32.2500 Du        
  12316 ****       -11.0000 -19.2500  24.2500 Du        
  12317 ****       -11.0000 -19.2500  24.5000 Du        
  12318 ****       -11.0000 -19.2500  24.7500 Du        
  12319 ****       -11.0000 -19.2500  25.0000 Du        
  12320 ****       -11.0000 -19.2500  30.7500 Du        
  12321 ****       -11.0000 -19.2500  31.0000 Du        
  12322 ****       -11.0000 -19.2500  31.2500 Du        
  12323 ****       -11.0000 -19.2500  31.5000 Du        
  12324 ****       -11.0000 -19.2500  31.7500 Du        
  12325 ****       -11.0000 -19.2500  32.0000 Du        
  12326 ****       -11.0000 -19.2500  32.2500 Du        
  12327 ****       -11.0000 -19.0000  24.5000 Du        
  12328 ****       -11.0000 -19.0000  24.7500 Du        
  12329 ****       -11.0000 -19.0000  25.0000 Du        
  12330 ****       -11.0000 -19.0000  30.7500 Du        
  12331 ****       -11.0000 -19.0000  31.0000 Du        
  12332 ****       -11.0000 -19.0000  31.2500 Du        
  12333 ****       -11.0000 -19.0000  31.5000 Du        
  12334 ****       -11.0000 -19.0000  31.7500 Du        
  12335 ****       -11.0000 -19.0000  32.0000 Du        
  12336 ****       -11.0000 -18.7500  24.7500 Du        
  12337 ****       -11.0000 -18.7500  25.0000 Du        
  12338 ****       -11.0000 -18.5000  24.7500 Du        
  12339 ****       -11.0000 -18.2500  25.0000 Du        
  12340 ****       -11.0000 -18.0000  25.0000 Du        
  12341 ****       -11.0000 -17.7500  25.0000 Du        
  12342 ****       -11.0000 -17.5000  25.0000 Du        
  12343 ****       -11.0000 -17.2500  25.0000 Du        
  12344 ****       -11.0000 -17.2500  25.2500 Du        
  12345 ****       -11.0000 -17.0000  24.7500 Du        
  12346 ****       -11.0000 -17.0000  25.0000 Du        
  12347 ****       -11.0000 -17.0000  25.2500 Du        
  12348 ****       -11.0000 -17.0000  25.5000 Du        
  12349 ****       -11.0000 -16.7500  24.7500 Du        
  12350 ****       -11.0000 -16.7500  25.0000 Du        
  12351 ****       -11.0000 -16.7500  25.2500 Du        
  12352 ****       -11.0000 -16.7500  25.5000 Du        
  12353 ****       -11.0000 -16.7500  25.7500 Du        
  12354 ****       -11.0000 -16.5000  24.5000 Du        
  12355 ****       -11.0000 -16.5000  24.7500 Du        
  12356 ****       -11.0000 -16.5000  25.0000 Du        
  12357 ****       -11.0000 -16.5000  25.2500 Du        
  12358 ****       -11.0000 -16.5000  25.5000 Du        
  12359 ****       -11.0000 -16.5000  25.7500 Du        
  12360 ****       -11.0000 -16.2500  24.5000 Du        
  12361 ****       -11.0000 -16.2500  24.7500 Du        
  12362 ****       -11.0000 -16.2500  25.0000 Du        
  12363 ****       -11.0000 -16.2500  25.2500 Du        
  12364 ****       -11.0000 -16.2500  25.5000 Du        
  12365 ****       -11.0000 -16.2500  25.7500 Du        
  12366 ****       -11.0000 -16.2500  26.0000 Du        
  12367 ****       -11.0000 -16.0000  24.7500 Du        
  12368 ****       -11.0000 -16.0000  25.0000 Du        
  12369 ****       -11.0000 -16.0000  25.2500 Du        
  12370 ****       -11.0000 -16.0000  25.5000 Du        
  12371 ****       -11.0000 -16.0000  25.7500 Du        
  12372 ****       -11.0000 -16.0000  26.0000 Du        
  12373 ****       -11.0000   2.0000  17.0000 Du        
  12374 ****       -11.0000   2.0000  17.2500 Du        
  12375 ****       -11.0000   2.0000  17.5000 Du        
  12376 ****       -11.0000   2.0000  17.7500 Du        
  12377 ****       -11.0000   2.0000  18.0000 Du        
  12378 ****       -11.0000   2.2500  16.7500 Du        
  12379 ****       -11.0000   2.2500  17.0000 Du        
  12380 ****       -11.0000   2.2500  17.2500 Du        
  12381 ****       -11.0000   2.2500  17.5000 Du        
  12382 ****       -11.0000   2.2500  17.7500 Du        
  12383 ****       -11.0000   2.2500  18.0000 Du        
  12384 ****       -11.0000   2.5000  16.7500 Du        
  12385 ****       -11.0000   2.5000  17.0000 Du        
  12386 ****       -11.0000   2.5000  17.2500 Du        
  12387 ****       -11.0000   2.5000  17.5000 Du        
  12388 ****       -11.0000   2.5000  17.7500 Du        
  12389 ****       -11.0000   2.7500  16.7500 Du        
  12390 ****       -11.0000   2.7500  17.0000 Du        
  12391 ****       -11.0000   2.7500  17.2500 Du        
  12392 ****       -11.0000   2.7500  17.5000 Du        
  12393 ****       -11.0000   3.0000  17.0000 Du        
  12394 ****       -11.0000   3.0000  17.2500 Du        
  12395 ****       -11.0000   7.0000  22.7500 Du        
  12396 ****       -11.0000   7.2500  22.2500 Du        
  12397 ****       -11.0000   7.5000  22.0000 Du        
  12398 ****       -11.0000   7.5000  22.2500 Du        
  12399 ****       -11.0000   7.5000  22.5000 Du        
  12400 ****       -11.0000   7.7500  22.0000 Du        
  12401 ****       -11.0000   7.7500  22.2500 Du        
  12402 ****       -11.0000   8.0000  21.7500 Du        
  12403 ****       -11.0000   8.0000  22.0000 Du        
  12404 ****       -11.0000  11.0000  11.5000 Du        
  12405 ****       -11.0000  11.0000  11.7500 Du        
  12406 ****       -11.0000  11.0000  12.0000 Du        
  12407 ****       -11.0000  11.0000  12.2500 Du        
  12408 ****       -11.0000  11.0000  12.5000 Du        
  12409 ****       -11.0000  11.2500  11.5000 Du        
  12410 ****       -11.0000  11.2500  11.7500 Du        
  12411 ****       -11.0000  11.2500  12.0000 Du        
  12412 ****       -11.0000  11.2500  12.2500 Du        
  12413 ****       -11.0000  11.2500  12.5000 Du        
  12414 ****       -11.0000  11.5000  11.5000 Du        
  12415 ****       -11.0000  11.5000  11.7500 Du        
  12416 ****       -11.0000  11.5000  12.0000 Du        
  12417 ****       -11.0000  11.5000  12.2500 Du        
  12418 ****       -11.0000  12.5000  28.0000 Du        
  12419 ****       -11.0000  12.5000  28.2500 Du        
  12420 ****       -11.0000  12.7500  27.5000 Du        
  12421 ****       -11.0000  12.7500  27.7500 Du        
  12422 ****       -11.0000  12.7500  28.0000 Du        
  12423 ****       -11.0000  12.7500  28.2500 Du        
  12424 ****       -11.0000  13.0000  26.7500 Du        
  12425 ****       -11.0000  13.0000  27.0000 Du        
  12426 ****       -11.0000  13.0000  27.2500 Du        
  12427 ****       -11.0000  13.0000  27.5000 Du        
  12428 ****       -11.0000  13.0000  27.7500 Du        
  12429 ****       -11.0000  13.0000  28.0000 Du        
  12430 ****       -11.0000  13.0000  28.2500 Du        
  12431 ****       -11.0000  13.2500  26.5000 Du        
  12432 ****       -11.0000  13.2500  26.7500 Du        
  12433 ****       -11.0000  13.2500  27.0000 Du        
  12434 ****       -11.0000  13.2500  27.2500 Du        
  12435 ****       -11.0000  13.2500  27.5000 Du        
  12436 ****       -11.0000  13.2500  27.7500 Du        
  12437 ****       -11.0000  13.2500  28.0000 Du        
  12438 ****       -11.0000  13.2500  28.2500 Du        
  12439 ****       -11.0000  13.5000  25.7500 Du        
  12440 ****       -11.0000  13.5000  26.0000 Du        
  12441 ****       -11.0000  13.5000  26.2500 Du        
  12442 ****       -11.0000  13.5000  26.5000 Du        
  12443 ****       -11.0000  13.5000  26.7500 Du        
  12444 ****       -11.0000  13.5000  27.0000 Du        
  12445 ****       -11.0000  13.5000  27.2500 Du        
  12446 ****       -11.0000  13.5000  27.5000 Du        
  12447 ****       -11.0000  13.5000  27.7500 Du        
  12448 ****       -11.0000  13.5000  28.0000 Du        
  12449 ****       -11.0000  13.7500  25.2500 Du        
  12450 ****       -11.0000  13.7500  25.5000 Du        
  12451 ****       -11.0000  13.7500  25.7500 Du        
  12452 ****       -11.0000  13.7500  26.0000 Du        
  12453 ****       -11.0000  13.7500  26.2500 Du        
  12454 ****       -11.0000  13.7500  26.5000 Du        
  12455 ****       -11.0000  13.7500  26.7500 Du        
  12456 ****       -11.0000  13.7500  27.0000 Du        
  12457 ****       -11.0000  13.7500  27.2500 Du        
  12458 ****       -11.0000  13.7500  27.5000 Du        
  12459 ****       -11.0000  13.7500  27.7500 Du        
  12460 ****       -11.0000  13.7500  28.0000 Du        
  12461 ****       -11.0000  14.0000  25.0000 Du        
  12462 ****       -11.0000  14.0000  25.2500 Du        
  12463 ****       -11.0000  14.0000  25.5000 Du        
  12464 ****       -11.0000  14.0000  25.7500 Du        
  12465 ****       -11.0000  14.0000  26.0000 Du        
  12466 ****       -11.0000  14.0000  26.2500 Du        
  12467 ****       -11.0000  14.0000  26.5000 Du        
  12468 ****       -11.0000  14.0000  26.7500 Du        
  12469 ****       -11.0000  14.0000  27.0000 Du        
  12470 ****       -11.0000  14.0000  27.2500 Du        
  12471 ****       -11.0000  14.0000  27.5000 Du        
  12472 ****       -11.0000  14.0000  27.7500 Du        
  12473 ****       -11.0000  14.2500  25.0000 Du        
  12474 ****       -11.0000  14.2500  25.2500 Du        
  12475 ****       -11.0000  14.2500  26.7500 Du        
  12476 ****       -11.0000  14.2500  27.0000 Du        
  12477 ****       -11.0000  14.2500  27.2500 Du        
  12478 ****       -11.0000  14.2500  27.5000 Du        
  12479 ****       -11.0000  14.2500  27.7500 Du        
  12480 ****       -10.7500 -23.5000  26.5000 Du        
  12481 ****       -10.7500 -23.5000  26.7500 Du        
  12482 ****       -10.7500 -23.5000  27.0000 Du        
  12483 ****       -10.7500 -23.2500  26.5000 Du        
  12484 ****       -10.7500 -23.2500  26.7500 Du        
  12485 ****       -10.7500 -23.2500  27.0000 Du        
  12486 ****       -10.7500 -23.0000  26.2500 Du        
  12487 ****       -10.7500 -23.0000  26.5000 Du        
  12488 ****       -10.7500 -23.0000  26.7500 Du        
  12489 ****       -10.7500 -23.0000  27.0000 Du        
  12490 ****       -10.7500 -22.7500  26.2500 Du        
  12491 ****       -10.7500 -22.7500  26.5000 Du        
  12492 ****       -10.7500 -22.7500  26.7500 Du        
  12493 ****       -10.7500 -22.7500  27.0000 Du        
  12494 ****       -10.7500 -22.5000  26.2500 Du        
  12495 ****       -10.7500 -22.5000  26.5000 Du        
  12496 ****       -10.7500 -22.5000  26.7500 Du        
  12497 ****       -10.7500 -22.5000  27.0000 Du        
  12498 ****       -10.7500 -22.2500  26.2500 Du        
  12499 ****       -10.7500 -22.2500  26.5000 Du        
  12500 ****       -10.7500 -22.2500  26.7500 Du        
  12501 ****       -10.7500 -22.0000  26.2500 Du        
  12502 ****       -10.7500 -22.0000  26.5000 Du        
  12503 ****       -10.7500 -20.2500  25.2500 Du        
  12504 ****       -10.7500 -20.2500  31.0000 Du        
  12505 ****       -10.7500 -20.2500  31.2500 Du        
  12506 ****       -10.7500 -20.2500  31.5000 Du        
  12507 ****       -10.7500 -20.2500  31.7500 Du        
  12508 ****       -10.7500 -20.2500  32.0000 Du        
  12509 ****       -10.7500 -20.0000  24.7500 Du        
  12510 ****       -10.7500 -20.0000  25.0000 Du        
  12511 ****       -10.7500 -20.0000  25.2500 Du        
  12512 ****       -10.7500 -20.0000  30.7500 Du        
  12513 ****       -10.7500 -20.0000  31.0000 Du        
  12514 ****       -10.7500 -20.0000  31.2500 Du        
  12515 ****       -10.7500 -20.0000  31.5000 Du        
  12516 ****       -10.7500 -20.0000  31.7500 Du        
  12517 ****       -10.7500 -20.0000  32.0000 Du        
  12518 ****       -10.7500 -20.0000  32.2500 Du        
  12519 ****       -10.7500 -19.7500  24.5000 Du        
  12520 ****       -10.7500 -19.7500  24.7500 Du        
  12521 ****       -10.7500 -19.7500  25.0000 Du        
  12522 ****       -10.7500 -19.7500  25.2500 Du        
  12523 ****       -10.7500 -19.7500  30.7500 Du        
  12524 ****       -10.7500 -19.7500  31.0000 Du        
  12525 ****       -10.7500 -19.7500  31.2500 Du        
  12526 ****       -10.7500 -19.7500  31.5000 Du        
  12527 ****       -10.7500 -19.7500  31.7500 Du        
  12528 ****       -10.7500 -19.7500  32.0000 Du        
  12529 ****       -10.7500 -19.7500  32.2500 Du        
  12530 ****       -10.7500 -19.5000  24.2500 Du        
  12531 ****       -10.7500 -19.5000  24.5000 Du        
  12532 ****       -10.7500 -19.5000  24.7500 Du        
  12533 ****       -10.7500 -19.5000  25.0000 Du        
  12534 ****       -10.7500 -19.5000  25.2500 Du        
  12535 ****       -10.7500 -19.5000  30.7500 Du        
  12536 ****       -10.7500 -19.5000  31.0000 Du        
  12537 ****       -10.7500 -19.5000  31.2500 Du        
  12538 ****       -10.7500 -19.5000  31.5000 Du        
  12539 ****       -10.7500 -19.5000  31.7500 Du        
  12540 ****       -10.7500 -19.5000  32.0000 Du        
  12541 ****       -10.7500 -19.5000  32.2500 Du        
  12542 ****       -10.7500 -19.2500  24.2500 Du        
  12543 ****       -10.7500 -19.2500  24.5000 Du        
  12544 ****       -10.7500 -19.2500  24.7500 Du        
  12545 ****       -10.7500 -19.2500  25.0000 Du        
  12546 ****       -10.7500 -19.2500  25.2500 Du        
  12547 ****       -10.7500 -19.2500  30.7500 Du        
  12548 ****       -10.7500 -19.2500  31.0000 Du        
  12549 ****       -10.7500 -19.2500  31.2500 Du        
  12550 ****       -10.7500 -19.2500  31.5000 Du        
  12551 ****       -10.7500 -19.2500  31.7500 Du        
  12552 ****       -10.7500 -19.2500  32.0000 Du        
  12553 ****       -10.7500 -19.2500  32.2500 Du        
  12554 ****       -10.7500 -19.0000  24.5000 Du        
  12555 ****       -10.7500 -19.0000  24.7500 Du        
  12556 ****       -10.7500 -19.0000  25.0000 Du        
  12557 ****       -10.7500 -19.0000  25.2500 Du        
  12558 ****       -10.7500 -19.0000  30.7500 Du        
  12559 ****       -10.7500 -19.0000  31.0000 Du        
  12560 ****       -10.7500 -19.0000  31.2500 Du        
  12561 ****       -10.7500 -19.0000  31.5000 Du        
  12562 ****       -10.7500 -19.0000  31.7500 Du        
  12563 ****       -10.7500 -19.0000  32.0000 Du        
  12564 ****       -10.7500 -19.0000  32.2500 Du        
  12565 ****       -10.7500 -18.7500  24.5000 Du        
  12566 ****       -10.7500 -18.7500  24.7500 Du        
  12567 ****       -10.7500 -18.7500  25.0000 Du        
  12568 ****       -10.7500 -18.7500  25.2500 Du        
  12569 ****       -10.7500 -18.7500  31.0000 Du        
  12570 ****       -10.7500 -18.7500  31.2500 Du        
  12571 ****       -10.7500 -18.7500  31.7500 Du        
  12572 ****       -10.7500 -18.7500  32.0000 Du        
  12573 ****       -10.7500 -18.5000  24.5000 Du        
  12574 ****       -10.7500 -18.5000  24.7500 Du        
  12575 ****       -10.7500 -18.5000  25.0000 Du        
  12576 ****       -10.7500 -18.2500  24.7500 Du        
  12577 ****       -10.7500 -18.2500  25.0000 Du        
  12578 ****       -10.7500 -18.2500  25.2500 Du        
  12579 ****       -10.7500 -18.0000  24.7500 Du        
  12580 ****       -10.7500 -18.0000  25.0000 Du        
  12581 ****       -10.7500 -18.0000  25.2500 Du        
  12582 ****       -10.7500 -17.7500  24.7500 Du        
  12583 ****       -10.7500 -17.7500  25.0000 Du        
  12584 ****       -10.7500 -17.7500  25.2500 Du        
  12585 ****       -10.7500 -17.5000  24.7500 Du        
  12586 ****       -10.7500 -17.5000  25.0000 Du        
  12587 ****       -10.7500 -17.5000  25.2500 Du        
  12588 ****       -10.7500 -17.2500  24.7500 Du        
  12589 ****       -10.7500 -17.2500  25.0000 Du        
  12590 ****       -10.7500 -17.2500  25.2500 Du        
  12591 ****       -10.7500 -17.0000  24.5000 Du        
  12592 ****       -10.7500 -17.0000  24.7500 Du        
  12593 ****       -10.7500 -17.0000  25.0000 Du        
  12594 ****       -10.7500 -17.0000  25.2500 Du        
  12595 ****       -10.7500 -17.0000  25.5000 Du        
  12596 ****       -10.7500 -16.7500  24.5000 Du        
  12597 ****       -10.7500 -16.7500  24.7500 Du        
  12598 ****       -10.7500 -16.7500  25.0000 Du        
  12599 ****       -10.7500 -16.7500  25.2500 Du        
  12600 ****       -10.7500 -16.7500  25.5000 Du        
  12601 ****       -10.7500 -16.7500  25.7500 Du        
  12602 ****       -10.7500 -16.5000  24.2500 Du        
  12603 ****       -10.7500 -16.5000  24.5000 Du        
  12604 ****       -10.7500 -16.5000  24.7500 Du        
  12605 ****       -10.7500 -16.5000  25.0000 Du        
  12606 ****       -10.7500 -16.5000  25.2500 Du        
  12607 ****       -10.7500 -16.5000  25.5000 Du        
  12608 ****       -10.7500 -16.2500  24.2500 Du        
  12609 ****       -10.7500 -16.2500  24.5000 Du        
  12610 ****       -10.7500 -16.2500  24.7500 Du        
  12611 ****       -10.7500 -16.2500  25.0000 Du        
  12612 ****       -10.7500 -16.2500  25.2500 Du        
  12613 ****       -10.7500 -16.2500  25.5000 Du        
  12614 ****       -10.7500 -16.2500  25.7500 Du        
  12615 ****       -10.7500 -16.0000  24.5000 Du        
  12616 ****       -10.7500 -16.0000  24.7500 Du        
  12617 ****       -10.7500 -16.0000  25.0000 Du        
  12618 ****       -10.7500 -16.0000  25.2500 Du        
  12619 ****       -10.7500   2.2500  17.0000 Du        
  12620 ****       -10.7500   2.2500  17.2500 Du        
  12621 ****       -10.7500   2.2500  17.5000 Du        
  12622 ****       -10.7500   2.5000  17.0000 Du        
  12623 ****       -10.7500   2.5000  17.2500 Du        
  12624 ****       -10.7500   2.7500  17.0000 Du        
  12625 ****       -10.7500   2.7500  17.2500 Du        
  12626 ****       -10.7500   7.0000  22.7500 Du        
  12627 ****       -10.7500   7.5000  22.2500 Du        
  12628 ****       -10.7500  12.5000  28.0000 Du        
  12629 ****       -10.7500  12.5000  28.2500 Du        
  12630 ****       -10.7500  12.7500  27.7500 Du        
  12631 ****       -10.7500  12.7500  28.0000 Du        
  12632 ****       -10.7500  12.7500  28.2500 Du        
  12633 ****       -10.7500  13.0000  27.0000 Du        
  12634 ****       -10.7500  13.0000  27.2500 Du        
  12635 ****       -10.7500  13.0000  27.5000 Du        
  12636 ****       -10.7500  13.0000  27.7500 Du        
  12637 ****       -10.7500  13.0000  28.0000 Du        
  12638 ****       -10.7500  13.0000  28.2500 Du        
  12639 ****       -10.7500  13.2500  26.7500 Du        
  12640 ****       -10.7500  13.2500  27.0000 Du        
  12641 ****       -10.7500  13.2500  27.2500 Du        
  12642 ****       -10.7500  13.2500  27.5000 Du        
  12643 ****       -10.7500  13.2500  27.7500 Du        
  12644 ****       -10.7500  13.2500  28.0000 Du        
  12645 ****       -10.7500  13.2500  28.2500 Du        
  12646 ****       -10.7500  13.5000  26.2500 Du        
  12647 ****       -10.7500  13.5000  26.5000 Du        
  12648 ****       -10.7500  13.5000  26.7500 Du        
  12649 ****       -10.7500  13.5000  27.0000 Du        
  12650 ****       -10.7500  13.5000  27.2500 Du        
  12651 ****       -10.7500  13.5000  27.5000 Du        
  12652 ****       -10.7500  13.5000  27.7500 Du        
  12653 ****       -10.7500  13.5000  28.0000 Du        
  12654 ****       -10.7500  13.7500  25.7500 Du        
  12655 ****       -10.7500  13.7500  26.0000 Du        
  12656 ****       -10.7500  13.7500  26.2500 Du        
  12657 ****       -10.7500  13.7500  26.5000 Du        
  12658 ****       -10.7500  13.7500  26.7500 Du        
  12659 ****       -10.7500  13.7500  27.0000 Du        
  12660 ****       -10.7500  13.7500  27.2500 Du        
  12661 ****       -10.7500  13.7500  27.5000 Du        
  12662 ****       -10.7500  13.7500  27.7500 Du        
  12663 ****       -10.7500  13.7500  28.0000 Du        
  12664 ****       -10.7500  14.0000  25.2500 Du        
  12665 ****       -10.7500  14.0000  25.5000 Du        
  12666 ****       -10.7500  14.0000  25.7500 Du        
  12667 ****       -10.7500  14.0000  26.0000 Du        
  12668 ****       -10.7500  14.0000  26.2500 Du        
  12669 ****       -10.7500  14.0000  26.5000 Du        
  12670 ****       -10.7500  14.0000  26.7500 Du        
  12671 ****       -10.7500  14.0000  27.0000 Du        
  12672 ****       -10.7500  14.0000  27.2500 Du        
  12673 ****       -10.7500  14.0000  27.5000 Du        
  12674 ****       -10.7500  14.0000  27.7500 Du        
  12675 ****       -10.7500  14.2500  25.0000 Du        
  12676 ****       -10.7500  14.2500  25.2500 Du        
  12677 ****       -10.7500  14.2500  25.5000 Du        
  12678 ****       -10.7500  14.2500  25.7500 Du        
  12679 ****       -10.7500  14.2500  26.0000 Du        
  12680 ****       -10.7500  14.2500  26.2500 Du        
  12681 ****       -10.7500  14.2500  26.5000 Du        
  12682 ****       -10.7500  14.2500  26.7500 Du        
  12683 ****       -10.7500  14.2500  27.0000 Du        
  12684 ****       -10.7500  14.2500  27.2500 Du        
  12685 ****       -10.7500  14.2500  27.5000 Du        
  12686 ****       -10.7500  14.2500  27.7500 Du        
  12687 ****       -10.5000 -24.0000  26.5000 Du        
  12688 ****       -10.5000 -24.0000  26.7500 Du        
  12689 ****       -10.5000 -24.0000  27.0000 Du        
  12690 ****       -10.5000 -23.7500  26.2500 Du        
  12691 ****       -10.5000 -23.7500  26.5000 Du        
  12692 ****       -10.5000 -23.7500  26.7500 Du        
  12693 ****       -10.5000 -23.7500  27.0000 Du        
  12694 ****       -10.5000 -23.5000  26.2500 Du        
  12695 ****       -10.5000 -23.5000  26.5000 Du        
  12696 ****       -10.5000 -23.5000  26.7500 Du        
  12697 ****       -10.5000 -23.5000  27.0000 Du        
  12698 ****       -10.5000 -23.2500  26.2500 Du        
  12699 ****       -10.5000 -23.2500  26.5000 Du        
  12700 ****       -10.5000 -23.2500  26.7500 Du        
  12701 ****       -10.5000 -23.2500  27.0000 Du        
  12702 ****       -10.5000 -23.0000  26.2500 Du        
  12703 ****       -10.5000 -23.0000  26.5000 Du        
  12704 ****       -10.5000 -23.0000  26.7500 Du        
  12705 ****       -10.5000 -23.0000  27.0000 Du        
  12706 ****       -10.5000 -23.0000  27.2500 Du        
  12707 ****       -10.5000 -22.7500  26.2500 Du        
  12708 ****       -10.5000 -22.7500  26.5000 Du        
  12709 ****       -10.5000 -22.7500  26.7500 Du        
  12710 ****       -10.5000 -22.7500  27.0000 Du        
  12711 ****       -10.5000 -22.7500  27.2500 Du        
  12712 ****       -10.5000 -22.5000  26.2500 Du        
  12713 ****       -10.5000 -22.5000  26.5000 Du        
  12714 ****       -10.5000 -22.5000  26.7500 Du        
  12715 ****       -10.5000 -22.5000  27.0000 Du        
  12716 ****       -10.5000 -22.2500  26.2500 Du        
  12717 ****       -10.5000 -22.2500  26.5000 Du        
  12718 ****       -10.5000 -22.2500  26.7500 Du        
  12719 ****       -10.5000 -22.2500  27.0000 Du        
  12720 ****       -10.5000 -22.0000  26.2500 Du        
  12721 ****       -10.5000 -22.0000  26.5000 Du        
  12722 ****       -10.5000 -22.0000  26.7500 Du        
  12723 ****       -10.5000 -21.7500  26.2500 Du        
  12724 ****       -10.5000 -20.2500  25.2500 Du        
  12725 ****       -10.5000 -20.2500  31.0000 Du        
  12726 ****       -10.5000 -20.2500  31.2500 Du        
  12727 ****       -10.5000 -20.2500  31.5000 Du        
  12728 ****       -10.5000 -20.2500  31.7500 Du        
  12729 ****       -10.5000 -20.2500  32.0000 Du        
  12730 ****       -10.5000 -20.0000  24.7500 Du        
  12731 ****       -10.5000 -20.0000  25.0000 Du        
  12732 ****       -10.5000 -20.0000  25.2500 Du        
  12733 ****       -10.5000 -20.0000  25.5000 Du        
  12734 ****       -10.5000 -20.0000  31.0000 Du        
  12735 ****       -10.5000 -20.0000  31.2500 Du        
  12736 ****       -10.5000 -20.0000  31.5000 Du        
  12737 ****       -10.5000 -20.0000  31.7500 Du        
  12738 ****       -10.5000 -20.0000  32.0000 Du        
  12739 ****       -10.5000 -19.7500  24.5000 Du        
  12740 ****       -10.5000 -19.7500  24.7500 Du        
  12741 ****       -10.5000 -19.7500  25.0000 Du        
  12742 ****       -10.5000 -19.7500  25.2500 Du        
  12743 ****       -10.5000 -19.7500  30.7500 Du        
  12744 ****       -10.5000 -19.7500  31.0000 Du        
  12745 ****       -10.5000 -19.7500  31.2500 Du        
  12746 ****       -10.5000 -19.7500  31.5000 Du        
  12747 ****       -10.5000 -19.7500  31.7500 Du        
  12748 ****       -10.5000 -19.7500  32.0000 Du        
  12749 ****       -10.5000 -19.7500  32.2500 Du        
  12750 ****       -10.5000 -19.5000  24.5000 Du        
  12751 ****       -10.5000 -19.5000  24.7500 Du        
  12752 ****       -10.5000 -19.5000  25.0000 Du        
  12753 ****       -10.5000 -19.5000  25.2500 Du        
  12754 ****       -10.5000 -19.5000  30.7500 Du        
  12755 ****       -10.5000 -19.5000  31.0000 Du        
  12756 ****       -10.5000 -19.5000  31.2500 Du        
  12757 ****       -10.5000 -19.5000  31.5000 Du        
  12758 ****       -10.5000 -19.5000  31.7500 Du        
  12759 ****       -10.5000 -19.5000  32.0000 Du        
  12760 ****       -10.5000 -19.5000  32.2500 Du        
  12761 ****       -10.5000 -19.2500  24.5000 Du        
  12762 ****       -10.5000 -19.2500  24.7500 Du        
  12763 ****       -10.5000 -19.2500  25.0000 Du        
  12764 ****       -10.5000 -19.2500  25.2500 Du        
  12765 ****       -10.5000 -19.2500  30.7500 Du        
  12766 ****       -10.5000 -19.2500  31.0000 Du        
  12767 ****       -10.5000 -19.2500  31.2500 Du        
  12768 ****       -10.5000 -19.2500  31.5000 Du        
  12769 ****       -10.5000 -19.2500  31.7500 Du        
  12770 ****       -10.5000 -19.2500  32.0000 Du        
  12771 ****       -10.5000 -19.2500  32.2500 Du        
  12772 ****       -10.5000 -19.0000  24.5000 Du        
  12773 ****       -10.5000 -19.0000  24.7500 Du        
  12774 ****       -10.5000 -19.0000  25.0000 Du        
  12775 ****       -10.5000 -19.0000  25.2500 Du        
  12776 ****       -10.5000 -19.0000  30.7500 Du        
  12777 ****       -10.5000 -19.0000  31.0000 Du        
  12778 ****       -10.5000 -19.0000  31.2500 Du        
  12779 ****       -10.5000 -19.0000  31.5000 Du        
  12780 ****       -10.5000 -19.0000  31.7500 Du        
  12781 ****       -10.5000 -19.0000  32.0000 Du        
  12782 ****       -10.5000 -19.0000  32.2500 Du        
  12783 ****       -10.5000 -18.7500  24.5000 Du        
  12784 ****       -10.5000 -18.7500  24.7500 Du        
  12785 ****       -10.5000 -18.7500  25.0000 Du        
  12786 ****       -10.5000 -18.7500  30.7500 Du        
  12787 ****       -10.5000 -18.7500  31.0000 Du        
  12788 ****       -10.5000 -18.7500  31.2500 Du        
  12789 ****       -10.5000 -18.7500  31.5000 Du        
  12790 ****       -10.5000 -18.7500  31.7500 Du        
  12791 ****       -10.5000 -18.7500  32.0000 Du        
  12792 ****       -10.5000 -18.7500  32.2500 Du        
  12793 ****       -10.5000 -18.5000  24.7500 Du        
  12794 ****       -10.5000 -18.5000  25.0000 Du        
  12795 ****       -10.5000 -18.2500  24.7500 Du        
  12796 ****       -10.5000 -18.2500  25.0000 Du        
  12797 ****       -10.5000 -18.0000  24.7500 Du        
  12798 ****       -10.5000 -18.0000  25.0000 Du        
  12799 ****       -10.5000 -17.7500  24.7500 Du        
  12800 ****       -10.5000 -17.7500  25.0000 Du        
  12801 ****       -10.5000 -17.5000  24.7500 Du        
  12802 ****       -10.5000 -17.5000  25.0000 Du        
  12803 ****       -10.5000 -17.2500  24.5000 Du        
  12804 ****       -10.5000 -17.2500  24.7500 Du        
  12805 ****       -10.5000 -17.2500  25.0000 Du        
  12806 ****       -10.5000 -17.2500  25.2500 Du        
  12807 ****       -10.5000 -17.0000  24.5000 Du        
  12808 ****       -10.5000 -17.0000  24.7500 Du        
  12809 ****       -10.5000 -17.0000  25.0000 Du        
  12810 ****       -10.5000 -17.0000  25.2500 Du        
  12811 ****       -10.5000 -16.7500  24.5000 Du        
  12812 ****       -10.5000 -16.7500  24.7500 Du        
  12813 ****       -10.5000 -16.7500  25.0000 Du        
  12814 ****       -10.5000 -16.7500  25.2500 Du        
  12815 ****       -10.5000 -16.5000  24.2500 Du        
  12816 ****       -10.5000 -16.5000  24.5000 Du        
  12817 ****       -10.5000 -16.5000  24.7500 Du        
  12818 ****       -10.5000 -16.5000  25.0000 Du        
  12819 ****       -10.5000 -16.5000  25.2500 Du        
  12820 ****       -10.5000 -16.2500  24.2500 Du        
  12821 ****       -10.5000 -16.2500  24.5000 Du        
  12822 ****       -10.5000 -16.2500  24.7500 Du        
  12823 ****       -10.5000 -16.2500  25.0000 Du        
  12824 ****       -10.5000 -16.2500  25.2500 Du        
  12825 ****       -10.5000 -16.0000  24.7500 Du        
  12826 ****       -10.5000 -16.0000  25.0000 Du        
  12827 ****       -10.5000   6.5000  23.0000 Du        
  12828 ****       -10.5000   6.7500  22.7500 Du        
  12829 ****       -10.5000   6.7500  23.0000 Du        
  12830 ****       -10.5000   7.0000  22.7500 Du        
  12831 ****       -10.5000  12.5000  28.2500 Du        
  12832 ****       -10.5000  12.7500  27.7500 Du        
  12833 ****       -10.5000  12.7500  28.0000 Du        
  12834 ****       -10.5000  12.7500  28.2500 Du        
  12835 ****       -10.5000  13.0000  27.2500 Du        
  12836 ****       -10.5000  13.0000  27.5000 Du        
  12837 ****       -10.5000  13.0000  27.7500 Du        
  12838 ****       -10.5000  13.0000  28.0000 Du        
  12839 ****       -10.5000  13.0000  28.2500 Du        
  12840 ****       -10.5000  13.2500  27.0000 Du        
  12841 ****       -10.5000  13.2500  27.2500 Du        
  12842 ****       -10.5000  13.2500  27.5000 Du        
  12843 ****       -10.5000  13.2500  27.7500 Du        
  12844 ****       -10.5000  13.2500  28.0000 Du        
  12845 ****       -10.5000  13.2500  28.2500 Du        
  12846 ****       -10.5000  13.5000  26.5000 Du        
  12847 ****       -10.5000  13.5000  26.7500 Du        
  12848 ****       -10.5000  13.5000  27.0000 Du        
  12849 ****       -10.5000  13.5000  27.2500 Du        
  12850 ****       -10.5000  13.5000  27.5000 Du        
  12851 ****       -10.5000  13.5000  27.7500 Du        
  12852 ****       -10.5000  13.5000  28.0000 Du        
  12853 ****       -10.5000  13.7500  26.0000 Du        
  12854 ****       -10.5000  13.7500  26.2500 Du        
  12855 ****       -10.5000  13.7500  26.5000 Du        
  12856 ****       -10.5000  13.7500  26.7500 Du        
  12857 ****       -10.5000  13.7500  27.0000 Du        
  12858 ****       -10.5000  13.7500  27.2500 Du        
  12859 ****       -10.5000  13.7500  27.5000 Du        
  12860 ****       -10.5000  13.7500  27.7500 Du        
  12861 ****       -10.5000  13.7500  28.0000 Du        
  12862 ****       -10.5000  14.0000  25.7500 Du        
  12863 ****       -10.5000  14.0000  26.0000 Du        
  12864 ****       -10.5000  14.0000  26.2500 Du        
  12865 ****       -10.5000  14.0000  26.5000 Du        
  12866 ****       -10.5000  14.0000  26.7500 Du        
  12867 ****       -10.5000  14.0000  27.0000 Du        
  12868 ****       -10.5000  14.0000  27.2500 Du        
  12869 ****       -10.5000  14.0000  27.5000 Du        
  12870 ****       -10.5000  14.0000  27.7500 Du        
  12871 ****       -10.5000  14.2500  25.5000 Du        
  12872 ****       -10.5000  14.2500  25.7500 Du        
  12873 ****       -10.5000  14.2500  26.0000 Du        
  12874 ****       -10.5000  14.2500  26.2500 Du        
  12875 ****       -10.5000  14.2500  26.5000 Du        
  12876 ****       -10.5000  14.2500  26.7500 Du        
  12877 ****       -10.5000  14.2500  27.0000 Du        
  12878 ****       -10.5000  14.2500  27.2500 Du        
  12879 ****       -10.5000  14.2500  27.5000 Du        
  12880 ****       -10.5000  14.2500  27.7500 Du        
  12881 ****       -10.2500 -24.5000  26.2500 Du        
  12882 ****       -10.2500 -24.5000  26.5000 Du        
  12883 ****       -10.2500 -24.2500  26.0000 Du        
  12884 ****       -10.2500 -24.2500  26.2500 Du        
  12885 ****       -10.2500 -24.2500  26.5000 Du        
  12886 ****       -10.2500 -24.2500  26.7500 Du        
  12887 ****       -10.2500 -24.2500  27.0000 Du        
  12888 ****       -10.2500 -24.0000  26.0000 Du        
  12889 ****       -10.2500 -24.0000  26.2500 Du        
  12890 ****       -10.2500 -24.0000  26.5000 Du        
  12891 ****       -10.2500 -24.0000  26.7500 Du        
  12892 ****       -10.2500 -24.0000  27.0000 Du        
  12893 ****       -10.2500 -24.0000  27.2500 Du        
  12894 ****       -10.2500 -23.7500  26.0000 Du        
  12895 ****       -10.2500 -23.7500  26.2500 Du        
  12896 ****       -10.2500 -23.7500  26.5000 Du        
  12897 ****       -10.2500 -23.7500  26.7500 Du        
  12898 ****       -10.2500 -23.7500  27.0000 Du        
  12899 ****       -10.2500 -23.7500  27.2500 Du        
  12900 ****       -10.2500 -23.5000  26.0000 Du        
  12901 ****       -10.2500 -23.5000  26.2500 Du        
  12902 ****       -10.2500 -23.5000  26.5000 Du        
  12903 ****       -10.2500 -23.5000  26.7500 Du        
  12904 ****       -10.2500 -23.5000  27.0000 Du        
  12905 ****       -10.2500 -23.5000  27.2500 Du        
  12906 ****       -10.2500 -23.2500  26.0000 Du        
  12907 ****       -10.2500 -23.2500  26.2500 Du        
  12908 ****       -10.2500 -23.2500  26.5000 Du        
  12909 ****       -10.2500 -23.2500  26.7500 Du        
  12910 ****       -10.2500 -23.2500  27.0000 Du        
  12911 ****       -10.2500 -23.2500  27.2500 Du        
  12912 ****       -10.2500 -23.0000  26.0000 Du        
  12913 ****       -10.2500 -23.0000  26.2500 Du        
  12914 ****       -10.2500 -23.0000  26.5000 Du        
  12915 ****       -10.2500 -23.0000  26.7500 Du        
  12916 ****       -10.2500 -23.0000  27.0000 Du        
  12917 ****       -10.2500 -23.0000  27.2500 Du        
  12918 ****       -10.2500 -22.7500  26.0000 Du        
  12919 ****       -10.2500 -22.7500  26.2500 Du        
  12920 ****       -10.2500 -22.7500  26.5000 Du        
  12921 ****       -10.2500 -22.7500  26.7500 Du        
  12922 ****       -10.2500 -22.7500  27.0000 Du        
  12923 ****       -10.2500 -22.7500  27.2500 Du        
  12924 ****       -10.2500 -22.5000  26.2500 Du        
  12925 ****       -10.2500 -22.5000  26.5000 Du        
  12926 ****       -10.2500 -22.5000  26.7500 Du        
  12927 ****       -10.2500 -22.5000  27.0000 Du        
  12928 ****       -10.2500 -22.2500  26.2500 Du        
  12929 ****       -10.2500 -22.2500  26.5000 Du        
  12930 ****       -10.2500 -22.2500  26.7500 Du        
  12931 ****       -10.2500 -22.2500  27.0000 Du        
  12932 ****       -10.2500 -22.0000  26.2500 Du        
  12933 ****       -10.2500 -22.0000  26.5000 Du        
  12934 ****       -10.2500 -21.7500  26.2500 Du        
  12935 ****       -10.2500 -20.2500  25.0000 Du        
  12936 ****       -10.2500 -20.2500  25.2500 Du        
  12937 ****       -10.2500 -20.2500  31.2500 Du        
  12938 ****       -10.2500 -20.2500  31.5000 Du        
  12939 ****       -10.2500 -20.2500  31.7500 Du        
  12940 ****       -10.2500 -20.0000  24.7500 Du        
  12941 ****       -10.2500 -20.0000  25.0000 Du        
  12942 ****       -10.2500 -20.0000  25.2500 Du        
  12943 ****       -10.2500 -20.0000  31.0000 Du        
  12944 ****       -10.2500 -20.0000  31.2500 Du        
  12945 ****       -10.2500 -20.0000  31.5000 Du        
  12946 ****       -10.2500 -20.0000  31.7500 Du        
  12947 ****       -10.2500 -20.0000  32.0000 Du        
  12948 ****       -10.2500 -19.7500  24.5000 Du        
  12949 ****       -10.2500 -19.7500  24.7500 Du        
  12950 ****       -10.2500 -19.7500  25.0000 Du        
  12951 ****       -10.2500 -19.7500  25.2500 Du        
  12952 ****       -10.2500 -19.7500  31.0000 Du        
  12953 ****       -10.2500 -19.7500  31.2500 Du        
  12954 ****       -10.2500 -19.7500  31.5000 Du        
  12955 ****       -10.2500 -19.7500  31.7500 Du        
  12956 ****       -10.2500 -19.7500  32.0000 Du        
  12957 ****       -10.2500 -19.7500  32.2500 Du        
  12958 ****       -10.2500 -19.5000  24.5000 Du        
  12959 ****       -10.2500 -19.5000  24.7500 Du        
  12960 ****       -10.2500 -19.5000  25.0000 Du        
  12961 ****       -10.2500 -19.5000  31.0000 Du        
  12962 ****       -10.2500 -19.5000  31.2500 Du        
  12963 ****       -10.2500 -19.5000  31.5000 Du        
  12964 ****       -10.2500 -19.5000  31.7500 Du        
  12965 ****       -10.2500 -19.5000  32.0000 Du        
  12966 ****       -10.2500 -19.5000  32.2500 Du        
  12967 ****       -10.2500 -19.2500  24.5000 Du        
  12968 ****       -10.2500 -19.2500  24.7500 Du        
  12969 ****       -10.2500 -19.2500  25.0000 Du        
  12970 ****       -10.2500 -19.2500  31.0000 Du        
  12971 ****       -10.2500 -19.2500  31.2500 Du        
  12972 ****       -10.2500 -19.2500  31.5000 Du        
  12973 ****       -10.2500 -19.2500  31.7500 Du        
  12974 ****       -10.2500 -19.2500  32.0000 Du        
  12975 ****       -10.2500 -19.2500  32.2500 Du        
  12976 ****       -10.2500 -19.0000  24.5000 Du        
  12977 ****       -10.2500 -19.0000  24.7500 Du        
  12978 ****       -10.2500 -19.0000  25.0000 Du        
  12979 ****       -10.2500 -19.0000  30.7500 Du        
  12980 ****       -10.2500 -19.0000  31.0000 Du        
  12981 ****       -10.2500 -19.0000  31.2500 Du        
  12982 ****       -10.2500 -19.0000  31.5000 Du        
  12983 ****       -10.2500 -19.0000  31.7500 Du        
  12984 ****       -10.2500 -19.0000  32.0000 Du        
  12985 ****       -10.2500 -19.0000  32.2500 Du        
  12986 ****       -10.2500 -18.7500  24.7500 Du        
  12987 ****       -10.2500 -18.7500  30.7500 Du        
  12988 ****       -10.2500 -18.7500  31.0000 Du        
  12989 ****       -10.2500 -18.7500  31.2500 Du        
  12990 ****       -10.2500 -18.7500  31.5000 Du        
  12991 ****       -10.2500 -18.7500  31.7500 Du        
  12992 ****       -10.2500 -18.7500  32.0000 Du        
  12993 ****       -10.2500 -18.7500  32.2500 Du        
  12994 ****       -10.2500 -18.5000  30.7500 Du        
  12995 ****       -10.2500 -18.5000  31.0000 Du        
  12996 ****       -10.2500 -18.5000  31.2500 Du        
  12997 ****       -10.2500 -18.2500  31.0000 Du        
  12998 ****       -10.2500 -18.2500  31.2500 Du        
  12999 ****       -10.2500 -17.2500  24.7500 Du        
  13000 ****       -10.2500 -17.0000  24.5000 Du        
  13001 ****       -10.2500 -17.0000  24.7500 Du        
  13002 ****       -10.2500 -17.0000  25.0000 Du        
  13003 ****       -10.2500 -16.7500  24.5000 Du        
  13004 ****       -10.2500 -16.7500  24.7500 Du        
  13005 ****       -10.2500 -16.7500  25.0000 Du        
  13006 ****       -10.2500 -16.7500  25.2500 Du        
  13007 ****       -10.2500 -16.5000  24.5000 Du        
  13008 ****       -10.2500 -16.5000  24.7500 Du        
  13009 ****       -10.2500 -16.5000  25.0000 Du        
  13010 ****       -10.2500 -16.2500  24.2500 Du        
  13011 ****       -10.2500 -16.2500  24.5000 Du        
  13012 ****       -10.2500 -16.2500  24.7500 Du        
  13013 ****       -10.2500 -16.2500  25.0000 Du        
  13014 ****       -10.2500 -16.2500  25.2500 Du        
  13015 ****       -10.2500 -16.0000  24.2500 Du        
  13016 ****       -10.2500 -16.0000  24.7500 Du        
  13017 ****       -10.2500 -16.0000  25.0000 Du        
  13018 ****       -10.2500   6.0000  23.2500 Du        
  13019 ****       -10.2500   6.2500  23.2500 Du        
  13020 ****       -10.2500   6.5000  23.0000 Du        
  13021 ****       -10.2500   6.5000  23.2500 Du        
  13022 ****       -10.2500   6.7500  23.0000 Du        
  13023 ****       -10.2500   7.0000  22.7500 Du        
  13024 ****       -10.2500  12.5000  28.2500 Du        
  13025 ****       -10.2500  12.7500  27.7500 Du        
  13026 ****       -10.2500  12.7500  28.0000 Du        
  13027 ****       -10.2500  12.7500  28.2500 Du        
  13028 ****       -10.2500  12.7500  28.5000 Du        
  13029 ****       -10.2500  13.0000  27.5000 Du        
  13030 ****       -10.2500  13.0000  27.7500 Du        
  13031 ****       -10.2500  13.0000  28.0000 Du        
  13032 ****       -10.2500  13.0000  28.2500 Du        
  13033 ****       -10.2500  13.2500  27.0000 Du        
  13034 ****       -10.2500  13.2500  27.2500 Du        
  13035 ****       -10.2500  13.2500  27.5000 Du        
  13036 ****       -10.2500  13.2500  27.7500 Du        
  13037 ****       -10.2500  13.2500  28.0000 Du        
  13038 ****       -10.2500  13.2500  28.2500 Du        
  13039 ****       -10.2500  13.5000  26.7500 Du        
  13040 ****       -10.2500  13.5000  27.0000 Du        
  13041 ****       -10.2500  13.5000  27.2500 Du        
  13042 ****       -10.2500  13.5000  27.5000 Du        
  13043 ****       -10.2500  13.5000  27.7500 Du        
  13044 ****       -10.2500  13.5000  28.0000 Du        
  13045 ****       -10.2500  13.7500  26.2500 Du        
  13046 ****       -10.2500  13.7500  26.5000 Du        
  13047 ****       -10.2500  13.7500  26.7500 Du        
  13048 ****       -10.2500  13.7500  27.0000 Du        
  13049 ****       -10.2500  13.7500  27.2500 Du        
  13050 ****       -10.2500  13.7500  27.5000 Du        
  13051 ****       -10.2500  13.7500  27.7500 Du        
  13052 ****       -10.2500  13.7500  28.0000 Du        
  13053 ****       -10.2500  14.0000  26.0000 Du        
  13054 ****       -10.2500  14.0000  26.2500 Du        
  13055 ****       -10.2500  14.0000  26.5000 Du        
  13056 ****       -10.2500  14.0000  26.7500 Du        
  13057 ****       -10.2500  14.0000  27.0000 Du        
  13058 ****       -10.2500  14.0000  27.2500 Du        
  13059 ****       -10.2500  14.0000  27.5000 Du        
  13060 ****       -10.2500  14.0000  27.7500 Du        
  13061 ****       -10.2500  14.2500  25.7500 Du        
  13062 ****       -10.2500  14.2500  26.0000 Du        
  13063 ****       -10.2500  14.2500  26.2500 Du        
  13064 ****       -10.2500  14.2500  26.5000 Du        
  13065 ****       -10.2500  14.2500  26.7500 Du        
  13066 ****       -10.2500  14.2500  27.0000 Du        
  13067 ****       -10.2500  14.2500  27.2500 Du        
  13068 ****       -10.2500  14.2500  27.5000 Du        
  13069 ****       -10.2500  14.2500  27.7500 Du        
  13070 ****       -10.2500  14.5000  27.2500 Du        
  13071 ****       -10.2500  14.5000  27.5000 Du        
  13072 ****       -10.0000 -24.7500  26.0000 Du        
  13073 ****       -10.0000 -24.7500  26.2500 Du        
  13074 ****       -10.0000 -24.7500  26.5000 Du        
  13075 ****       -10.0000 -24.7500  26.7500 Du        
  13076 ****       -10.0000 -24.5000  26.0000 Du        
  13077 ****       -10.0000 -24.5000  26.2500 Du        
  13078 ****       -10.0000 -24.5000  26.5000 Du        
  13079 ****       -10.0000 -24.5000  26.7500 Du        
  13080 ****       -10.0000 -24.5000  27.0000 Du        
  13081 ****       -10.0000 -24.2500  26.0000 Du        
  13082 ****       -10.0000 -24.2500  26.2500 Du        
  13083 ****       -10.0000 -24.2500  26.5000 Du        
  13084 ****       -10.0000 -24.2500  26.7500 Du        
  13085 ****       -10.0000 -24.2500  27.0000 Du        
  13086 ****       -10.0000 -24.2500  27.2500 Du        
  13087 ****       -10.0000 -24.0000  26.0000 Du        
  13088 ****       -10.0000 -24.0000  26.2500 Du        
  13089 ****       -10.0000 -24.0000  26.5000 Du        
  13090 ****       -10.0000 -24.0000  26.7500 Du        
  13091 ****       -10.0000 -24.0000  27.0000 Du        
  13092 ****       -10.0000 -24.0000  27.2500 Du        
  13093 ****       -10.0000 -23.7500  26.0000 Du        
  13094 ****       -10.0000 -23.7500  26.2500 Du        
  13095 ****       -10.0000 -23.7500  26.5000 Du        
  13096 ****       -10.0000 -23.7500  26.7500 Du        
  13097 ****       -10.0000 -23.7500  27.0000 Du        
  13098 ****       -10.0000 -23.7500  27.2500 Du        
  13099 ****       -10.0000 -23.5000  26.0000 Du        
  13100 ****       -10.0000 -23.5000  26.2500 Du        
  13101 ****       -10.0000 -23.5000  26.5000 Du        
  13102 ****       -10.0000 -23.5000  26.7500 Du        
  13103 ****       -10.0000 -23.5000  27.0000 Du        
  13104 ****       -10.0000 -23.5000  27.2500 Du        
  13105 ****       -10.0000 -23.5000  27.5000 Du        
  13106 ****       -10.0000 -23.2500  26.0000 Du        
  13107 ****       -10.0000 -23.2500  26.2500 Du        
  13108 ****       -10.0000 -23.2500  26.5000 Du        
  13109 ****       -10.0000 -23.2500  26.7500 Du        
  13110 ****       -10.0000 -23.2500  27.0000 Du        
  13111 ****       -10.0000 -23.2500  27.2500 Du        
  13112 ****       -10.0000 -23.2500  27.5000 Du        
  13113 ****       -10.0000 -23.0000  26.0000 Du        
  13114 ****       -10.0000 -23.0000  26.2500 Du        
  13115 ****       -10.0000 -23.0000  26.5000 Du        
  13116 ****       -10.0000 -23.0000  26.7500 Du        
  13117 ****       -10.0000 -23.0000  27.0000 Du        
  13118 ****       -10.0000 -23.0000  27.2500 Du        
  13119 ****       -10.0000 -22.7500  26.0000 Du        
  13120 ****       -10.0000 -22.7500  26.2500 Du        
  13121 ****       -10.0000 -22.7500  26.5000 Du        
  13122 ****       -10.0000 -22.7500  26.7500 Du        
  13123 ****       -10.0000 -22.7500  27.0000 Du        
  13124 ****       -10.0000 -22.7500  27.2500 Du        
  13125 ****       -10.0000 -22.5000  26.0000 Du        
  13126 ****       -10.0000 -22.5000  26.2500 Du        
  13127 ****       -10.0000 -22.5000  26.5000 Du        
  13128 ****       -10.0000 -22.5000  26.7500 Du        
  13129 ****       -10.0000 -22.5000  27.0000 Du        
  13130 ****       -10.0000 -22.2500  26.0000 Du        
  13131 ****       -10.0000 -22.2500  26.2500 Du        
  13132 ****       -10.0000 -22.2500  26.5000 Du        
  13133 ****       -10.0000 -22.2500  26.7500 Du        
  13134 ****       -10.0000 -22.0000  26.0000 Du        
  13135 ****       -10.0000 -22.0000  26.2500 Du        
  13136 ****       -10.0000 -21.7500  26.0000 Du        
  13137 ****       -10.0000 -20.2500  25.0000 Du        
  13138 ****       -10.0000 -20.2500  31.2500 Du        
  13139 ****       -10.0000 -20.2500  31.5000 Du        
  13140 ****       -10.0000 -20.2500  31.7500 Du        
  13141 ****       -10.0000 -20.0000  24.7500 Du        
  13142 ****       -10.0000 -20.0000  25.0000 Du        
  13143 ****       -10.0000 -20.0000  31.0000 Du        
  13144 ****       -10.0000 -20.0000  31.2500 Du        
  13145 ****       -10.0000 -20.0000  31.5000 Du        
  13146 ****       -10.0000 -20.0000  31.7500 Du        
  13147 ****       -10.0000 -20.0000  32.0000 Du        
  13148 ****       -10.0000 -19.7500  24.7500 Du        
  13149 ****       -10.0000 -19.7500  25.0000 Du        
  13150 ****       -10.0000 -19.7500  31.0000 Du        
  13151 ****       -10.0000 -19.7500  31.2500 Du        
  13152 ****       -10.0000 -19.7500  31.5000 Du        
  13153 ****       -10.0000 -19.7500  31.7500 Du        
  13154 ****       -10.0000 -19.7500  32.0000 Du        
  13155 ****       -10.0000 -19.5000  24.7500 Du        
  13156 ****       -10.0000 -19.5000  31.0000 Du        
  13157 ****       -10.0000 -19.5000  31.2500 Du        
  13158 ****       -10.0000 -19.5000  31.5000 Du        
  13159 ****       -10.0000 -19.5000  31.7500 Du        
  13160 ****       -10.0000 -19.5000  32.0000 Du        
  13161 ****       -10.0000 -19.5000  32.2500 Du        
  13162 ****       -10.0000 -19.2500  24.7500 Du        
  13163 ****       -10.0000 -19.2500  31.0000 Du        
  13164 ****       -10.0000 -19.2500  31.2500 Du        
  13165 ****       -10.0000 -19.2500  31.5000 Du        
  13166 ****       -10.0000 -19.2500  31.7500 Du        
  13167 ****       -10.0000 -19.2500  32.0000 Du        
  13168 ****       -10.0000 -19.2500  32.2500 Du        
  13169 ****       -10.0000 -19.0000  30.7500 Du        
  13170 ****       -10.0000 -19.0000  31.0000 Du        
  13171 ****       -10.0000 -19.0000  31.2500 Du        
  13172 ****       -10.0000 -19.0000  31.5000 Du        
  13173 ****       -10.0000 -19.0000  31.7500 Du        
  13174 ****       -10.0000 -19.0000  32.0000 Du        
  13175 ****       -10.0000 -19.0000  32.2500 Du        
  13176 ****       -10.0000 -18.7500  30.7500 Du        
  13177 ****       -10.0000 -18.7500  31.0000 Du        
  13178 ****       -10.0000 -18.7500  31.2500 Du        
  13179 ****       -10.0000 -18.7500  31.5000 Du        
  13180 ****       -10.0000 -18.7500  31.7500 Du        
  13181 ****       -10.0000 -18.7500  32.0000 Du        
  13182 ****       -10.0000 -18.7500  32.2500 Du        
  13183 ****       -10.0000 -18.5000  30.7500 Du        
  13184 ****       -10.0000 -18.5000  31.0000 Du        
  13185 ****       -10.0000 -18.5000  31.2500 Du        
  13186 ****       -10.0000 -18.5000  31.5000 Du        
  13187 ****       -10.0000 -18.5000  31.7500 Du        
  13188 ****       -10.0000 -18.5000  32.0000 Du        
  13189 ****       -10.0000 -18.2500  30.7500 Du        
  13190 ****       -10.0000 -18.2500  31.0000 Du        
  13191 ****       -10.0000 -18.2500  31.2500 Du        
  13192 ****       -10.0000 -18.2500  31.5000 Du        
  13193 ****       -10.0000 -18.2500  31.7500 Du        
  13194 ****       -10.0000 -18.2500  32.0000 Du        
  13195 ****       -10.0000 -18.0000  30.7500 Du        
  13196 ****       -10.0000 -18.0000  31.0000 Du        
  13197 ****       -10.0000 -18.0000  31.2500 Du        
  13198 ****       -10.0000 -18.0000  31.5000 Du        
  13199 ****       -10.0000 -16.7500  24.7500 Du        
  13200 ****       -10.0000 -16.5000  24.5000 Du        
  13201 ****       -10.0000 -16.5000  24.7500 Du        
  13202 ****       -10.0000 -16.2500  24.2500 Du        
  13203 ****       -10.0000 -16.2500  24.5000 Du        
  13204 ****       -10.0000 -16.2500  24.7500 Du        
  13205 ****       -10.0000 -16.2500  25.0000 Du        
  13206 ****       -10.0000 -16.0000  24.2500 Du        
  13207 ****       -10.0000   5.5000  23.2500 Du        
  13208 ****       -10.0000   5.7500  23.2500 Du        
  13209 ****       -10.0000   6.0000  23.0000 Du        
  13210 ****       -10.0000   6.0000  23.2500 Du        
  13211 ****       -10.0000   6.0000  23.5000 Du        
  13212 ****       -10.0000   6.2500  23.0000 Du        
  13213 ****       -10.0000   6.2500  23.2500 Du        
  13214 ****       -10.0000   6.5000  23.0000 Du        
  13215 ****       -10.0000   6.5000  23.2500 Du        
  13216 ****       -10.0000   6.7500  23.0000 Du        
  13217 ****       -10.0000  12.5000  28.2500 Du        
  13218 ****       -10.0000  12.7500  28.0000 Du        
  13219 ****       -10.0000  12.7500  28.2500 Du        
  13220 ****       -10.0000  12.7500  28.5000 Du        
  13221 ****       -10.0000  13.0000  27.5000 Du        
  13222 ****       -10.0000  13.0000  27.7500 Du        
  13223 ****       -10.0000  13.0000  28.0000 Du        
  13224 ****       -10.0000  13.0000  28.2500 Du        
  13225 ****       -10.0000  13.2500  27.0000 Du        
  13226 ****       -10.0000  13.2500  27.2500 Du        
  13227 ****       -10.0000  13.2500  27.5000 Du        
  13228 ****       -10.0000  13.2500  27.7500 Du        
  13229 ****       -10.0000  13.2500  28.0000 Du        
  13230 ****       -10.0000  13.2500  28.2500 Du        
  13231 ****       -10.0000  13.5000  26.7500 Du        
  13232 ****       -10.0000  13.5000  27.0000 Du        
  13233 ****       -10.0000  13.5000  27.2500 Du        
  13234 ****       -10.0000  13.5000  27.5000 Du        
  13235 ****       -10.0000  13.5000  27.7500 Du        
  13236 ****       -10.0000  13.5000  28.0000 Du        
  13237 ****       -10.0000  13.5000  28.2500 Du        
  13238 ****       -10.0000  13.7500  26.5000 Du        
  13239 ****       -10.0000  13.7500  26.7500 Du        
  13240 ****       -10.0000  13.7500  27.0000 Du        
  13241 ****       -10.0000  13.7500  27.2500 Du        
  13242 ****       -10.0000  13.7500  27.5000 Du        
  13243 ****       -10.0000  13.7500  27.7500 Du        
  13244 ****       -10.0000  13.7500  28.0000 Du        
  13245 ****       -10.0000  14.0000  26.2500 Du        
  13246 ****       -10.0000  14.0000  26.5000 Du        
  13247 ****       -10.0000  14.0000  26.7500 Du        
  13248 ****       -10.0000  14.0000  27.0000 Du        
  13249 ****       -10.0000  14.0000  27.2500 Du        
  13250 ****       -10.0000  14.0000  27.5000 Du        
  13251 ****       -10.0000  14.0000  27.7500 Du        
  13252 ****       -10.0000  14.0000  28.0000 Du        
  13253 ****       -10.0000  14.2500  26.0000 Du        
  13254 ****       -10.0000  14.2500  26.2500 Du        
  13255 ****       -10.0000  14.2500  26.5000 Du        
  13256 ****       -10.0000  14.2500  26.7500 Du        
  13257 ****       -10.0000  14.2500  27.0000 Du        
  13258 ****       -10.0000  14.2500  27.2500 Du        
  13259 ****       -10.0000  14.2500  27.5000 Du        
  13260 ****       -10.0000  14.2500  27.7500 Du        
  13261 ****       -10.0000  14.5000  27.0000 Du        
  13262 ****       -10.0000  14.5000  27.2500 Du        
  13263 ****       -10.0000  14.5000  27.5000 Du        
  13264 ****       -10.0000  14.5000  27.7500 Du        
  13265 ****        -9.7500 -24.7500  25.7500 Du        
  13266 ****        -9.7500 -24.7500  26.0000 Du        
  13267 ****        -9.7500 -24.7500  26.2500 Du        
  13268 ****        -9.7500 -24.7500  26.5000 Du        
  13269 ****        -9.7500 -24.7500  26.7500 Du        
  13270 ****        -9.7500 -24.5000  25.7500 Du        
  13271 ****        -9.7500 -24.5000  26.0000 Du        
  13272 ****        -9.7500 -24.5000  26.2500 Du        
  13273 ****        -9.7500 -24.5000  26.5000 Du        
  13274 ****        -9.7500 -24.5000  26.7500 Du        
  13275 ****        -9.7500 -24.5000  27.0000 Du        
  13276 ****        -9.7500 -24.2500  25.7500 Du        
  13277 ****        -9.7500 -24.2500  26.0000 Du        
  13278 ****        -9.7500 -24.2500  26.2500 Du        
  13279 ****        -9.7500 -24.2500  26.5000 Du        
  13280 ****        -9.7500 -24.2500  26.7500 Du        
  13281 ****        -9.7500 -24.2500  27.0000 Du        
  13282 ****        -9.7500 -24.2500  27.2500 Du        
  13283 ****        -9.7500 -24.0000  25.7500 Du        
  13284 ****        -9.7500 -24.0000  26.0000 Du        
  13285 ****        -9.7500 -24.0000  26.2500 Du        
  13286 ****        -9.7500 -24.0000  26.5000 Du        
  13287 ****        -9.7500 -24.0000  26.7500 Du        
  13288 ****        -9.7500 -24.0000  27.0000 Du        
  13289 ****        -9.7500 -24.0000  27.2500 Du        
  13290 ****        -9.7500 -24.0000  27.5000 Du        
  13291 ****        -9.7500 -23.7500  25.7500 Du        
  13292 ****        -9.7500 -23.7500  26.0000 Du        
  13293 ****        -9.7500 -23.7500  26.2500 Du        
  13294 ****        -9.7500 -23.7500  26.5000 Du        
  13295 ****        -9.7500 -23.7500  26.7500 Du        
  13296 ****        -9.7500 -23.7500  27.0000 Du        
  13297 ****        -9.7500 -23.7500  27.2500 Du        
  13298 ****        -9.7500 -23.7500  27.5000 Du        
  13299 ****        -9.7500 -23.5000  25.7500 Du        
  13300 ****        -9.7500 -23.5000  26.0000 Du        
  13301 ****        -9.7500 -23.5000  26.2500 Du        
  13302 ****        -9.7500 -23.5000  26.5000 Du        
  13303 ****        -9.7500 -23.5000  26.7500 Du        
  13304 ****        -9.7500 -23.5000  27.0000 Du        
  13305 ****        -9.7500 -23.5000  27.2500 Du        
  13306 ****        -9.7500 -23.5000  27.5000 Du        
  13307 ****        -9.7500 -23.2500  25.7500 Du        
  13308 ****        -9.7500 -23.2500  26.0000 Du        
  13309 ****        -9.7500 -23.2500  26.2500 Du        
  13310 ****        -9.7500 -23.2500  26.5000 Du        
  13311 ****        -9.7500 -23.2500  26.7500 Du        
  13312 ****        -9.7500 -23.2500  27.0000 Du        
  13313 ****        -9.7500 -23.2500  27.2500 Du        
  13314 ****        -9.7500 -23.2500  27.5000 Du        
  13315 ****        -9.7500 -23.0000  25.7500 Du        
  13316 ****        -9.7500 -23.0000  26.0000 Du        
  13317 ****        -9.7500 -23.0000  26.2500 Du        
  13318 ****        -9.7500 -23.0000  26.5000 Du        
  13319 ****        -9.7500 -23.0000  26.7500 Du        
  13320 ****        -9.7500 -23.0000  27.0000 Du        
  13321 ****        -9.7500 -23.0000  27.2500 Du        
  13322 ****        -9.7500 -23.0000  27.5000 Du        
  13323 ****        -9.7500 -22.7500  26.0000 Du        
  13324 ****        -9.7500 -22.7500  26.2500 Du        
  13325 ****        -9.7500 -22.7500  26.5000 Du        
  13326 ****        -9.7500 -22.7500  26.7500 Du        
  13327 ****        -9.7500 -22.7500  27.0000 Du        
  13328 ****        -9.7500 -22.7500  27.2500 Du        
  13329 ****        -9.7500 -22.5000  26.0000 Du        
  13330 ****        -9.7500 -22.5000  26.2500 Du        
  13331 ****        -9.7500 -22.5000  26.5000 Du        
  13332 ****        -9.7500 -22.5000  26.7500 Du        
  13333 ****        -9.7500 -22.5000  27.0000 Du        
  13334 ****        -9.7500 -22.2500  26.0000 Du        
  13335 ****        -9.7500 -22.2500  26.2500 Du        
  13336 ****        -9.7500 -22.2500  26.5000 Du        
  13337 ****        -9.7500 -22.0000  26.0000 Du        
  13338 ****        -9.7500 -22.0000  26.2500 Du        
  13339 ****        -9.7500 -20.2500  25.0000 Du        
  13340 ****        -9.7500 -20.2500  31.2500 Du        
  13341 ****        -9.7500 -20.2500  31.5000 Du        
  13342 ****        -9.7500 -20.0000  24.7500 Du        
  13343 ****        -9.7500 -20.0000  25.0000 Du        
  13344 ****        -9.7500 -20.0000  31.2500 Du        
  13345 ****        -9.7500 -20.0000  31.5000 Du        
  13346 ****        -9.7500 -20.0000  31.7500 Du        
  13347 ****        -9.7500 -19.7500  24.7500 Du        
  13348 ****        -9.7500 -19.7500  31.0000 Du        
  13349 ****        -9.7500 -19.7500  31.2500 Du        
  13350 ****        -9.7500 -19.7500  31.5000 Du        
  13351 ****        -9.7500 -19.7500  31.7500 Du        
  13352 ****        -9.7500 -19.5000  31.0000 Du        
  13353 ****        -9.7500 -19.5000  31.2500 Du        
  13354 ****        -9.7500 -19.5000  31.5000 Du        
  13355 ****        -9.7500 -19.5000  31.7500 Du        
  13356 ****        -9.7500 -19.5000  32.0000 Du        
  13357 ****        -9.7500 -19.2500  31.0000 Du        
  13358 ****        -9.7500 -19.2500  31.2500 Du        
  13359 ****        -9.7500 -19.2500  31.5000 Du        
  13360 ****        -9.7500 -19.2500  31.7500 Du        
  13361 ****        -9.7500 -19.2500  32.0000 Du        
  13362 ****        -9.7500 -19.0000  31.0000 Du        
  13363 ****        -9.7500 -19.0000  31.2500 Du        
  13364 ****        -9.7500 -19.0000  31.5000 Du        
  13365 ****        -9.7500 -19.0000  31.7500 Du        
  13366 ****        -9.7500 -19.0000  32.0000 Du        
  13367 ****        -9.7500 -18.7500  31.0000 Du        
  13368 ****        -9.7500 -18.7500  31.2500 Du        
  13369 ****        -9.7500 -18.7500  31.5000 Du        
  13370 ****        -9.7500 -18.7500  31.7500 Du        
  13371 ****        -9.7500 -18.7500  32.0000 Du        
  13372 ****        -9.7500 -18.7500  32.2500 Du        
  13373 ****        -9.7500 -18.5000  30.7500 Du        
  13374 ****        -9.7500 -18.5000  31.0000 Du        
  13375 ****        -9.7500 -18.5000  31.2500 Du        
  13376 ****        -9.7500 -18.5000  31.5000 Du        
  13377 ****        -9.7500 -18.5000  31.7500 Du        
  13378 ****        -9.7500 -18.5000  32.0000 Du        
  13379 ****        -9.7500 -18.2500  30.7500 Du        
  13380 ****        -9.7500 -18.2500  31.0000 Du        
  13381 ****        -9.7500 -18.2500  31.2500 Du        
  13382 ****        -9.7500 -18.2500  31.5000 Du        
  13383 ****        -9.7500 -18.2500  31.7500 Du        
  13384 ****        -9.7500 -18.2500  32.0000 Du        
  13385 ****        -9.7500 -18.0000  30.7500 Du        
  13386 ****        -9.7500 -18.0000  31.0000 Du        
  13387 ****        -9.7500 -18.0000  31.2500 Du        
  13388 ****        -9.7500 -18.0000  31.5000 Du        
  13389 ****        -9.7500 -18.0000  31.7500 Du        
  13390 ****        -9.7500 -17.7500  30.7500 Du        
  13391 ****        -9.7500 -17.7500  31.0000 Du        
  13392 ****        -9.7500 -17.7500  31.2500 Du        
  13393 ****        -9.7500 -17.7500  31.5000 Du        
  13394 ****        -9.7500 -16.0000  24.2500 Du        
  13395 ****        -9.7500   5.5000  23.2500 Du        
  13396 ****        -9.7500   5.5000  23.5000 Du        
  13397 ****        -9.7500   5.7500  23.2500 Du        
  13398 ****        -9.7500   5.7500  23.5000 Du        
  13399 ****        -9.7500   6.0000  23.2500 Du        
  13400 ****        -9.7500   6.2500  23.2500 Du        
  13401 ****        -9.7500  12.7500  28.0000 Du        
  13402 ****        -9.7500  12.7500  28.2500 Du        
  13403 ****        -9.7500  12.7500  28.5000 Du        
  13404 ****        -9.7500  13.0000  27.7500 Du        
  13405 ****        -9.7500  13.0000  28.0000 Du        
  13406 ****        -9.7500  13.0000  28.2500 Du        
  13407 ****        -9.7500  13.0000  28.5000 Du        
  13408 ****        -9.7500  13.2500  27.2500 Du        
  13409 ****        -9.7500  13.2500  27.5000 Du        
  13410 ****        -9.7500  13.2500  27.7500 Du        
  13411 ****        -9.7500  13.2500  28.0000 Du        
  13412 ****        -9.7500  13.2500  28.2500 Du        
  13413 ****        -9.7500  13.5000  27.0000 Du        
  13414 ****        -9.7500  13.5000  27.2500 Du        
  13415 ****        -9.7500  13.5000  27.5000 Du        
  13416 ****        -9.7500  13.5000  27.7500 Du        
  13417 ****        -9.7500  13.5000  28.0000 Du        
  13418 ****        -9.7500  13.5000  28.2500 Du        
  13419 ****        -9.7500  13.7500  26.7500 Du        
  13420 ****        -9.7500  13.7500  27.0000 Du        
  13421 ****        -9.7500  13.7500  27.2500 Du        
  13422 ****        -9.7500  13.7500  27.5000 Du        
  13423 ****        -9.7500  13.7500  27.7500 Du        
  13424 ****        -9.7500  13.7500  28.0000 Du        
  13425 ****        -9.7500  14.0000  26.2500 Du        
  13426 ****        -9.7500  14.0000  26.5000 Du        
  13427 ****        -9.7500  14.0000  26.7500 Du        
  13428 ****        -9.7500  14.0000  27.0000 Du        
  13429 ****        -9.7500  14.0000  27.2500 Du        
  13430 ****        -9.7500  14.0000  27.5000 Du        
  13431 ****        -9.7500  14.0000  27.7500 Du        
  13432 ****        -9.7500  14.0000  28.0000 Du        
  13433 ****        -9.7500  14.2500  26.2500 Du        
  13434 ****        -9.7500  14.2500  26.5000 Du        
  13435 ****        -9.7500  14.2500  26.7500 Du        
  13436 ****        -9.7500  14.2500  27.0000 Du        
  13437 ****        -9.7500  14.2500  27.2500 Du        
  13438 ****        -9.7500  14.2500  27.5000 Du        
  13439 ****        -9.7500  14.2500  27.7500 Du        
  13440 ****        -9.7500  14.5000  26.2500 Du        
  13441 ****        -9.7500  14.5000  26.5000 Du        
  13442 ****        -9.7500  14.5000  26.7500 Du        
  13443 ****        -9.7500  14.5000  27.0000 Du        
  13444 ****        -9.7500  14.5000  27.2500 Du        
  13445 ****        -9.7500  14.5000  27.5000 Du        
  13446 ****        -9.7500  14.5000  27.7500 Du        
  13447 ****        -9.5000 -24.7500  25.7500 Du        
  13448 ****        -9.5000 -24.7500  26.0000 Du        
  13449 ****        -9.5000 -24.7500  26.2500 Du        
  13450 ****        -9.5000 -24.7500  26.5000 Du        
  13451 ****        -9.5000 -24.7500  26.7500 Du        
  13452 ****        -9.5000 -24.5000  25.7500 Du        
  13453 ****        -9.5000 -24.5000  26.0000 Du        
  13454 ****        -9.5000 -24.5000  26.2500 Du        
  13455 ****        -9.5000 -24.5000  26.5000 Du        
  13456 ****        -9.5000 -24.5000  26.7500 Du        
  13457 ****        -9.5000 -24.5000  27.0000 Du        
  13458 ****        -9.5000 -24.2500  25.7500 Du        
  13459 ****        -9.5000 -24.2500  26.0000 Du        
  13460 ****        -9.5000 -24.2500  26.2500 Du        
  13461 ****        -9.5000 -24.2500  26.5000 Du        
  13462 ****        -9.5000 -24.2500  26.7500 Du        
  13463 ****        -9.5000 -24.2500  27.0000 Du        
  13464 ****        -9.5000 -24.2500  27.2500 Du        
  13465 ****        -9.5000 -24.0000  25.7500 Du        
  13466 ****        -9.5000 -24.0000  26.0000 Du        
  13467 ****        -9.5000 -24.0000  26.2500 Du        
  13468 ****        -9.5000 -24.0000  26.5000 Du        
  13469 ****        -9.5000 -24.0000  26.7500 Du        
  13470 ****        -9.5000 -24.0000  27.0000 Du        
  13471 ****        -9.5000 -24.0000  27.2500 Du        
  13472 ****        -9.5000 -24.0000  27.5000 Du        
  13473 ****        -9.5000 -23.7500  25.7500 Du        
  13474 ****        -9.5000 -23.7500  26.0000 Du        
  13475 ****        -9.5000 -23.7500  26.2500 Du        
  13476 ****        -9.5000 -23.7500  26.5000 Du        
  13477 ****        -9.5000 -23.7500  26.7500 Du        
  13478 ****        -9.5000 -23.7500  27.0000 Du        
  13479 ****        -9.5000 -23.7500  27.2500 Du        
  13480 ****        -9.5000 -23.7500  27.5000 Du        
  13481 ****        -9.5000 -23.5000  25.7500 Du        
  13482 ****        -9.5000 -23.5000  26.0000 Du        
  13483 ****        -9.5000 -23.5000  26.2500 Du        
  13484 ****        -9.5000 -23.5000  26.5000 Du        
  13485 ****        -9.5000 -23.5000  26.7500 Du        
  13486 ****        -9.5000 -23.5000  27.0000 Du        
  13487 ****        -9.5000 -23.5000  27.2500 Du        
  13488 ****        -9.5000 -23.5000  27.5000 Du        
  13489 ****        -9.5000 -23.2500  25.7500 Du        
  13490 ****        -9.5000 -23.2500  26.0000 Du        
  13491 ****        -9.5000 -23.2500  26.2500 Du        
  13492 ****        -9.5000 -23.2500  26.5000 Du        
  13493 ****        -9.5000 -23.2500  26.7500 Du        
  13494 ****        -9.5000 -23.2500  27.0000 Du        
  13495 ****        -9.5000 -23.2500  27.2500 Du        
  13496 ****        -9.5000 -23.2500  27.5000 Du        
  13497 ****        -9.5000 -23.0000  25.7500 Du        
  13498 ****        -9.5000 -23.0000  26.0000 Du        
  13499 ****        -9.5000 -23.0000  26.2500 Du        
  13500 ****        -9.5000 -23.0000  26.5000 Du        
  13501 ****        -9.5000 -23.0000  26.7500 Du        
  13502 ****        -9.5000 -23.0000  27.0000 Du        
  13503 ****        -9.5000 -23.0000  27.2500 Du        
  13504 ****        -9.5000 -22.7500  25.7500 Du        
  13505 ****        -9.5000 -22.7500  26.0000 Du        
  13506 ****        -9.5000 -22.7500  26.2500 Du        
  13507 ****        -9.5000 -22.7500  26.5000 Du        
  13508 ****        -9.5000 -22.7500  26.7500 Du        
  13509 ****        -9.5000 -22.7500  27.0000 Du        
  13510 ****        -9.5000 -22.5000  25.7500 Du        
  13511 ****        -9.5000 -22.5000  26.0000 Du        
  13512 ****        -9.5000 -22.5000  26.2500 Du        
  13513 ****        -9.5000 -22.5000  26.5000 Du        
  13514 ****        -9.5000 -22.5000  26.7500 Du        
  13515 ****        -9.5000 -22.2500  25.7500 Du        
  13516 ****        -9.5000 -22.2500  26.0000 Du        
  13517 ****        -9.5000 -22.2500  26.2500 Du        
  13518 ****        -9.5000 -22.0000  25.7500 Du        
  13519 ****        -9.5000 -22.0000  26.0000 Du        
  13520 ****        -9.5000 -20.0000  31.2500 Du        
  13521 ****        -9.5000 -20.0000  31.5000 Du        
  13522 ****        -9.5000 -19.7500  31.2500 Du        
  13523 ****        -9.5000 -19.7500  31.5000 Du        
  13524 ****        -9.5000 -19.5000  31.2500 Du        
  13525 ****        -9.5000 -19.5000  31.5000 Du        
  13526 ****        -9.5000 -19.2500  31.0000 Du        
  13527 ****        -9.5000 -19.2500  31.2500 Du        
  13528 ****        -9.5000 -19.2500  31.5000 Du        
  13529 ****        -9.5000 -19.2500  31.7500 Du        
  13530 ****        -9.5000 -19.0000  31.0000 Du        
  13531 ****        -9.5000 -19.0000  31.2500 Du        
  13532 ****        -9.5000 -19.0000  31.5000 Du        
  13533 ****        -9.5000 -19.0000  31.7500 Du        
  13534 ****        -9.5000 -18.7500  31.0000 Du        
  13535 ****        -9.5000 -18.7500  31.2500 Du        
  13536 ****        -9.5000 -18.7500  31.5000 Du        
  13537 ****        -9.5000 -18.7500  31.7500 Du        
  13538 ****        -9.5000 -18.7500  32.0000 Du        
  13539 ****        -9.5000 -18.5000  31.0000 Du        
  13540 ****        -9.5000 -18.5000  31.2500 Du        
  13541 ****        -9.5000 -18.5000  31.5000 Du        
  13542 ****        -9.5000 -18.5000  31.7500 Du        
  13543 ****        -9.5000 -18.2500  30.7500 Du        
  13544 ****        -9.5000 -18.2500  31.0000 Du        
  13545 ****        -9.5000 -18.2500  31.2500 Du        
  13546 ****        -9.5000 -18.2500  31.5000 Du        
  13547 ****        -9.5000 -18.2500  31.7500 Du        
  13548 ****        -9.5000 -18.2500  32.0000 Du        
  13549 ****        -9.5000 -18.0000  30.7500 Du        
  13550 ****        -9.5000 -18.0000  31.0000 Du        
  13551 ****        -9.5000 -18.0000  31.2500 Du        
  13552 ****        -9.5000 -18.0000  31.5000 Du        
  13553 ****        -9.5000 -18.0000  31.7500 Du        
  13554 ****        -9.5000 -17.7500  30.5000 Du        
  13555 ****        -9.5000 -17.7500  30.7500 Du        
  13556 ****        -9.5000 -17.7500  31.0000 Du        
  13557 ****        -9.5000 -17.7500  31.2500 Du        
  13558 ****        -9.5000 -17.7500  31.5000 Du        
  13559 ****        -9.5000 -17.7500  31.7500 Du        
  13560 ****        -9.5000 -17.5000  31.0000 Du        
  13561 ****        -9.5000   5.5000  23.5000 Du        
  13562 ****        -9.5000   5.5000  23.7500 Du        
  13563 ****        -9.5000  12.5000  28.5000 Du        
  13564 ****        -9.5000  12.7500  28.0000 Du        
  13565 ****        -9.5000  12.7500  28.2500 Du        
  13566 ****        -9.5000  12.7500  28.5000 Du        
  13567 ****        -9.5000  13.0000  27.7500 Du        
  13568 ****        -9.5000  13.0000  28.0000 Du        
  13569 ****        -9.5000  13.0000  28.2500 Du        
  13570 ****        -9.5000  13.0000  28.5000 Du        
  13571 ****        -9.5000  13.2500  27.5000 Du        
  13572 ****        -9.5000  13.2500  27.7500 Du        
  13573 ****        -9.5000  13.2500  28.0000 Du        
  13574 ****        -9.5000  13.2500  28.2500 Du        
  13575 ****        -9.5000  13.5000  27.0000 Du        
  13576 ****        -9.5000  13.5000  27.2500 Du        
  13577 ****        -9.5000  13.5000  27.5000 Du        
  13578 ****        -9.5000  13.5000  27.7500 Du        
  13579 ****        -9.5000  13.5000  28.0000 Du        
  13580 ****        -9.5000  13.5000  28.2500 Du        
  13581 ****        -9.5000  13.7500  26.7500 Du        
  13582 ****        -9.5000  13.7500  27.0000 Du        
  13583 ****        -9.5000  13.7500  27.2500 Du        
  13584 ****        -9.5000  13.7500  27.5000 Du        
  13585 ****        -9.5000  13.7500  27.7500 Du        
  13586 ****        -9.5000  13.7500  28.0000 Du        
  13587 ****        -9.5000  13.7500  28.2500 Du        
  13588 ****        -9.5000  14.0000  26.5000 Du        
  13589 ****        -9.5000  14.0000  26.7500 Du        
  13590 ****        -9.5000  14.0000  27.0000 Du        
  13591 ****        -9.5000  14.0000  27.2500 Du        
  13592 ****        -9.5000  14.0000  27.5000 Du        
  13593 ****        -9.5000  14.0000  27.7500 Du        
  13594 ****        -9.5000  14.0000  28.0000 Du        
  13595 ****        -9.5000  14.2500  26.2500 Du        
  13596 ****        -9.5000  14.2500  26.5000 Du        
  13597 ****        -9.5000  14.2500  26.7500 Du        
  13598 ****        -9.5000  14.2500  27.0000 Du        
  13599 ****        -9.5000  14.2500  27.2500 Du        
  13600 ****        -9.5000  14.2500  27.5000 Du        
  13601 ****        -9.5000  14.2500  27.7500 Du        
  13602 ****        -9.5000  14.2500  28.0000 Du        
  13603 ****        -9.5000  14.5000  26.2500 Du        
  13604 ****        -9.5000  14.5000  26.5000 Du        
  13605 ****        -9.5000  14.5000  26.7500 Du        
  13606 ****        -9.5000  14.5000  27.0000 Du        
  13607 ****        -9.5000  14.5000  27.2500 Du        
  13608 ****        -9.5000  14.5000  27.5000 Du        
  13609 ****        -9.5000  14.5000  27.7500 Du        
  13610 ****        -9.5000  14.5000  28.0000 Du        
  13611 ****        -9.5000  14.7500  27.2500 Du        
  13612 ****        -9.5000  14.7500  27.5000 Du        
  13613 ****        -9.5000  14.7500  27.7500 Du        
  13614 ****        -9.2500 -24.7500  25.7500 Du        
  13615 ****        -9.2500 -24.7500  26.0000 Du        
  13616 ****        -9.2500 -24.7500  26.2500 Du        
  13617 ****        -9.2500 -24.7500  26.5000 Du        
  13618 ****        -9.2500 -24.5000  25.5000 Du        
  13619 ****        -9.2500 -24.5000  25.7500 Du        
  13620 ****        -9.2500 -24.5000  26.0000 Du        
  13621 ****        -9.2500 -24.5000  26.2500 Du        
  13622 ****        -9.2500 -24.5000  26.5000 Du        
  13623 ****        -9.2500 -24.5000  26.7500 Du        
  13624 ****        -9.2500 -24.5000  27.0000 Du        
  13625 ****        -9.2500 -24.2500  25.5000 Du        
  13626 ****        -9.2500 -24.2500  25.7500 Du        
  13627 ****        -9.2500 -24.2500  26.0000 Du        
  13628 ****        -9.2500 -24.2500  26.2500 Du        
  13629 ****        -9.2500 -24.2500  26.5000 Du        
  13630 ****        -9.2500 -24.2500  26.7500 Du        
  13631 ****        -9.2500 -24.2500  27.0000 Du        
  13632 ****        -9.2500 -24.2500  27.2500 Du        
  13633 ****        -9.2500 -24.0000  25.5000 Du        
  13634 ****        -9.2500 -24.0000  25.7500 Du        
  13635 ****        -9.2500 -24.0000  26.0000 Du        
  13636 ****        -9.2500 -24.0000  26.2500 Du        
  13637 ****        -9.2500 -24.0000  26.5000 Du        
  13638 ****        -9.2500 -24.0000  26.7500 Du        
  13639 ****        -9.2500 -24.0000  27.0000 Du        
  13640 ****        -9.2500 -24.0000  27.2500 Du        
  13641 ****        -9.2500 -24.0000  27.5000 Du        
  13642 ****        -9.2500 -23.7500  25.5000 Du        
  13643 ****        -9.2500 -23.7500  25.7500 Du        
  13644 ****        -9.2500 -23.7500  26.0000 Du        
  13645 ****        -9.2500 -23.7500  26.2500 Du        
  13646 ****        -9.2500 -23.7500  26.5000 Du        
  13647 ****        -9.2500 -23.7500  26.7500 Du        
  13648 ****        -9.2500 -23.7500  27.0000 Du        
  13649 ****        -9.2500 -23.7500  27.2500 Du        
  13650 ****        -9.2500 -23.7500  27.5000 Du        
  13651 ****        -9.2500 -23.5000  25.5000 Du        
  13652 ****        -9.2500 -23.5000  25.7500 Du        
  13653 ****        -9.2500 -23.5000  26.0000 Du        
  13654 ****        -9.2500 -23.5000  26.2500 Du        
  13655 ****        -9.2500 -23.5000  26.5000 Du        
  13656 ****        -9.2500 -23.5000  26.7500 Du        
  13657 ****        -9.2500 -23.5000  27.0000 Du        
  13658 ****        -9.2500 -23.5000  27.2500 Du        
  13659 ****        -9.2500 -23.5000  27.5000 Du        
  13660 ****        -9.2500 -23.2500  25.5000 Du        
  13661 ****        -9.2500 -23.2500  25.7500 Du        
  13662 ****        -9.2500 -23.2500  26.0000 Du        
  13663 ****        -9.2500 -23.2500  26.2500 Du        
  13664 ****        -9.2500 -23.2500  26.5000 Du        
  13665 ****        -9.2500 -23.2500  26.7500 Du        
  13666 ****        -9.2500 -23.2500  27.0000 Du        
  13667 ****        -9.2500 -23.2500  27.2500 Du        
  13668 ****        -9.2500 -23.2500  27.5000 Du        
  13669 ****        -9.2500 -23.0000  25.5000 Du        
  13670 ****        -9.2500 -23.0000  25.7500 Du        
  13671 ****        -9.2500 -23.0000  26.0000 Du        
  13672 ****        -9.2500 -23.0000  26.2500 Du        
  13673 ****        -9.2500 -23.0000  26.5000 Du        
  13674 ****        -9.2500 -23.0000  26.7500 Du        
  13675 ****        -9.2500 -23.0000  27.0000 Du        
  13676 ****        -9.2500 -23.0000  27.2500 Du        
  13677 ****        -9.2500 -22.7500  25.5000 Du        
  13678 ****        -9.2500 -22.7500  25.7500 Du        
  13679 ****        -9.2500 -22.7500  26.0000 Du        
  13680 ****        -9.2500 -22.7500  26.2500 Du        
  13681 ****        -9.2500 -22.7500  26.5000 Du        
  13682 ****        -9.2500 -22.7500  26.7500 Du        
  13683 ****        -9.2500 -22.7500  27.0000 Du        
  13684 ****        -9.2500 -22.5000  25.5000 Du        
  13685 ****        -9.2500 -22.5000  25.7500 Du        
  13686 ****        -9.2500 -22.5000  26.0000 Du        
  13687 ****        -9.2500 -22.5000  26.2500 Du        
  13688 ****        -9.2500 -22.5000  26.5000 Du        
  13689 ****        -9.2500 -22.2500  25.5000 Du        
  13690 ****        -9.2500 -22.2500  25.7500 Du        
  13691 ****        -9.2500 -22.2500  26.0000 Du        
  13692 ****        -9.2500 -22.2500  26.2500 Du        
  13693 ****        -9.2500 -22.0000  25.5000 Du        
  13694 ****        -9.2500 -22.0000  25.7500 Du        
  13695 ****        -9.2500 -22.0000  26.0000 Du        
  13696 ****        -9.2500 -19.5000  31.2500 Du        
  13697 ****        -9.2500 -19.2500  31.2500 Du        
  13698 ****        -9.2500 -19.2500  31.5000 Du        
  13699 ****        -9.2500 -19.0000  31.0000 Du        
  13700 ****        -9.2500 -19.0000  31.2500 Du        
  13701 ****        -9.2500 -19.0000  31.5000 Du        
  13702 ****        -9.2500 -18.7500  31.0000 Du        
  13703 ****        -9.2500 -18.7500  31.2500 Du        
  13704 ****        -9.2500 -18.7500  31.5000 Du        
  13705 ****        -9.2500 -18.7500  31.7500 Du        
  13706 ****        -9.2500 -18.5000  31.0000 Du        
  13707 ****        -9.2500 -18.5000  31.2500 Du        
  13708 ****        -9.2500 -18.5000  31.5000 Du        
  13709 ****        -9.2500 -18.5000  31.7500 Du        
  13710 ****        -9.2500 -18.2500  30.7500 Du        
  13711 ****        -9.2500 -18.2500  31.0000 Du        
  13712 ****        -9.2500 -18.2500  31.2500 Du        
  13713 ****        -9.2500 -18.2500  31.5000 Du        
  13714 ****        -9.2500 -18.2500  31.7500 Du        
  13715 ****        -9.2500 -18.0000  30.7500 Du        
  13716 ****        -9.2500 -18.0000  31.0000 Du        
  13717 ****        -9.2500 -18.0000  31.2500 Du        
  13718 ****        -9.2500 -18.0000  31.5000 Du        
  13719 ****        -9.2500 -18.0000  31.7500 Du        
  13720 ****        -9.2500 -17.7500  30.5000 Du        
  13721 ****        -9.2500 -17.7500  30.7500 Du        
  13722 ****        -9.2500 -17.7500  31.0000 Du        
  13723 ****        -9.2500 -17.7500  31.2500 Du        
  13724 ****        -9.2500 -17.7500  31.5000 Du        
  13725 ****        -9.2500 -17.7500  31.7500 Du        
  13726 ****        -9.2500 -17.5000  30.5000 Du        
  13727 ****        -9.2500 -17.5000  30.7500 Du        
  13728 ****        -9.2500 -17.5000  31.0000 Du        
  13729 ****        -9.2500 -17.5000  31.2500 Du        
  13730 ****        -9.2500 -17.2500  30.7500 Du        
  13731 ****        -9.2500 -17.2500  31.0000 Du        
  13732 ****        -9.2500  11.2500   9.7500 Du        
  13733 ****        -9.2500  11.5000   9.5000 Du        
  13734 ****        -9.2500  11.5000   9.7500 Du        
  13735 ****        -9.2500  11.7500   9.2500 Du        
  13736 ****        -9.2500  11.7500   9.5000 Du        
  13737 ****        -9.2500  11.7500   9.7500 Du        
  13738 ****        -9.2500  12.0000   9.0000 Du        
  13739 ****        -9.2500  12.0000   9.2500 Du        
  13740 ****        -9.2500  12.0000   9.5000 Du        
  13741 ****        -9.2500  12.2500   9.0000 Du        
  13742 ****        -9.2500  12.5000  28.2500 Du        
  13743 ****        -9.2500  12.5000  28.5000 Du        
  13744 ****        -9.2500  12.7500  28.0000 Du        
  13745 ****        -9.2500  12.7500  28.2500 Du        
  13746 ****        -9.2500  12.7500  28.5000 Du        
  13747 ****        -9.2500  12.7500  28.7500 Du        
  13748 ****        -9.2500  13.0000  27.7500 Du        
  13749 ****        -9.2500  13.0000  28.0000 Du        
  13750 ****        -9.2500  13.0000  28.2500 Du        
  13751 ****        -9.2500  13.0000  28.5000 Du        
  13752 ****        -9.2500  13.2500  27.2500 Du        
  13753 ****        -9.2500  13.2500  27.5000 Du        
  13754 ****        -9.2500  13.2500  27.7500 Du        
  13755 ****        -9.2500  13.2500  28.0000 Du        
  13756 ****        -9.2500  13.2500  28.2500 Du        
  13757 ****        -9.2500  13.2500  28.5000 Du        
  13758 ****        -9.2500  13.5000  27.0000 Du        
  13759 ****        -9.2500  13.5000  27.2500 Du        
  13760 ****        -9.2500  13.5000  27.5000 Du        
  13761 ****        -9.2500  13.5000  27.7500 Du        
  13762 ****        -9.2500  13.5000  28.0000 Du        
  13763 ****        -9.2500  13.5000  28.2500 Du        
  13764 ****        -9.2500  13.7500  26.7500 Du        
  13765 ****        -9.2500  13.7500  27.0000 Du        
  13766 ****        -9.2500  13.7500  27.2500 Du        
  13767 ****        -9.2500  13.7500  27.5000 Du        
  13768 ****        -9.2500  13.7500  27.7500 Du        
  13769 ****        -9.2500  13.7500  28.0000 Du        
  13770 ****        -9.2500  13.7500  28.2500 Du        
  13771 ****        -9.2500  14.0000  26.5000 Du        
  13772 ****        -9.2500  14.0000  26.7500 Du        
  13773 ****        -9.2500  14.0000  27.0000 Du        
  13774 ****        -9.2500  14.0000  27.2500 Du        
  13775 ****        -9.2500  14.0000  27.5000 Du        
  13776 ****        -9.2500  14.0000  27.7500 Du        
  13777 ****        -9.2500  14.0000  28.0000 Du        
  13778 ****        -9.2500  14.0000  28.2500 Du        
  13779 ****        -9.2500  14.2500  26.2500 Du        
  13780 ****        -9.2500  14.2500  26.5000 Du        
  13781 ****        -9.2500  14.2500  26.7500 Du        
  13782 ****        -9.2500  14.2500  27.0000 Du        
  13783 ****        -9.2500  14.2500  27.2500 Du        
  13784 ****        -9.2500  14.2500  27.5000 Du        
  13785 ****        -9.2500  14.2500  27.7500 Du        
  13786 ****        -9.2500  14.2500  28.0000 Du        
  13787 ****        -9.2500  14.5000  26.2500 Du        
  13788 ****        -9.2500  14.5000  26.5000 Du        
  13789 ****        -9.2500  14.5000  26.7500 Du        
  13790 ****        -9.2500  14.5000  27.0000 Du        
  13791 ****        -9.2500  14.5000  27.2500 Du        
  13792 ****        -9.2500  14.5000  27.5000 Du        
  13793 ****        -9.2500  14.5000  27.7500 Du        
  13794 ****        -9.2500  14.5000  28.0000 Du        
  13795 ****        -9.2500  14.7500  26.5000 Du        
  13796 ****        -9.2500  14.7500  26.7500 Du        
  13797 ****        -9.2500  14.7500  27.0000 Du        
  13798 ****        -9.2500  14.7500  27.2500 Du        
  13799 ****        -9.2500  14.7500  27.5000 Du        
  13800 ****        -9.2500  14.7500  27.7500 Du        
  13801 ****        -9.2500  14.7500  28.0000 Du        
  13802 ****        -9.2500  15.0000  27.5000 Du        
  13803 ****        -9.2500  15.0000  27.7500 Du        
  13804 ****        -9.0000 -24.7500  25.7500 Du        
  13805 ****        -9.0000 -24.7500  26.0000 Du        
  13806 ****        -9.0000 -24.7500  26.2500 Du        
  13807 ****        -9.0000 -24.7500  26.5000 Du        
  13808 ****        -9.0000 -24.5000  25.5000 Du        
  13809 ****        -9.0000 -24.5000  25.7500 Du        
  13810 ****        -9.0000 -24.5000  26.0000 Du        
  13811 ****        -9.0000 -24.5000  26.2500 Du        
  13812 ****        -9.0000 -24.5000  26.5000 Du        
  13813 ****        -9.0000 -24.5000  26.7500 Du        
  13814 ****        -9.0000 -24.5000  27.0000 Du        
  13815 ****        -9.0000 -24.2500  25.5000 Du        
  13816 ****        -9.0000 -24.2500  25.7500 Du        
  13817 ****        -9.0000 -24.2500  26.0000 Du        
  13818 ****        -9.0000 -24.2500  26.2500 Du        
  13819 ****        -9.0000 -24.2500  26.5000 Du        
  13820 ****        -9.0000 -24.2500  26.7500 Du        
  13821 ****        -9.0000 -24.2500  27.0000 Du        
  13822 ****        -9.0000 -24.2500  27.2500 Du        
  13823 ****        -9.0000 -24.2500  27.5000 Du        
  13824 ****        -9.0000 -24.0000  25.5000 Du        
  13825 ****        -9.0000 -24.0000  25.7500 Du        
  13826 ****        -9.0000 -24.0000  26.0000 Du        
  13827 ****        -9.0000 -24.0000  26.2500 Du        
  13828 ****        -9.0000 -24.0000  26.5000 Du        
  13829 ****        -9.0000 -24.0000  26.7500 Du        
  13830 ****        -9.0000 -24.0000  27.0000 Du        
  13831 ****        -9.0000 -24.0000  27.2500 Du        
  13832 ****        -9.0000 -24.0000  27.5000 Du        
  13833 ****        -9.0000 -23.7500  25.5000 Du        
  13834 ****        -9.0000 -23.7500  25.7500 Du        
  13835 ****        -9.0000 -23.7500  26.0000 Du        
  13836 ****        -9.0000 -23.7500  26.2500 Du        
  13837 ****        -9.0000 -23.7500  26.5000 Du        
  13838 ****        -9.0000 -23.7500  26.7500 Du        
  13839 ****        -9.0000 -23.7500  27.0000 Du        
  13840 ****        -9.0000 -23.7500  27.2500 Du        
  13841 ****        -9.0000 -23.7500  27.5000 Du        
  13842 ****        -9.0000 -23.7500  27.7500 Du        
  13843 ****        -9.0000 -23.5000  25.5000 Du        
  13844 ****        -9.0000 -23.5000  25.7500 Du        
  13845 ****        -9.0000 -23.5000  26.0000 Du        
  13846 ****        -9.0000 -23.5000  26.2500 Du        
  13847 ****        -9.0000 -23.5000  26.5000 Du        
  13848 ****        -9.0000 -23.5000  26.7500 Du        
  13849 ****        -9.0000 -23.5000  27.0000 Du        
  13850 ****        -9.0000 -23.5000  27.2500 Du        
  13851 ****        -9.0000 -23.5000  27.5000 Du        
  13852 ****        -9.0000 -23.2500  25.5000 Du        
  13853 ****        -9.0000 -23.2500  25.7500 Du        
  13854 ****        -9.0000 -23.2500  26.0000 Du        
  13855 ****        -9.0000 -23.2500  26.2500 Du        
  13856 ****        -9.0000 -23.2500  26.5000 Du        
  13857 ****        -9.0000 -23.2500  26.7500 Du        
  13858 ****        -9.0000 -23.2500  27.0000 Du        
  13859 ****        -9.0000 -23.2500  27.2500 Du        
  13860 ****        -9.0000 -23.0000  25.5000 Du        
  13861 ****        -9.0000 -23.0000  25.7500 Du        
  13862 ****        -9.0000 -23.0000  26.0000 Du        
  13863 ****        -9.0000 -23.0000  26.2500 Du        
  13864 ****        -9.0000 -23.0000  26.5000 Du        
  13865 ****        -9.0000 -23.0000  26.7500 Du        
  13866 ****        -9.0000 -23.0000  27.0000 Du        
  13867 ****        -9.0000 -23.0000  27.2500 Du        
  13868 ****        -9.0000 -22.7500  25.5000 Du        
  13869 ****        -9.0000 -22.7500  25.7500 Du        
  13870 ****        -9.0000 -22.7500  26.0000 Du        
  13871 ****        -9.0000 -22.7500  26.2500 Du        
  13872 ****        -9.0000 -22.7500  26.5000 Du        
  13873 ****        -9.0000 -22.7500  26.7500 Du        
  13874 ****        -9.0000 -22.5000  25.5000 Du        
  13875 ****        -9.0000 -22.5000  25.7500 Du        
  13876 ****        -9.0000 -22.5000  26.0000 Du        
  13877 ****        -9.0000 -22.5000  26.2500 Du        
  13878 ****        -9.0000 -22.2500  25.5000 Du        
  13879 ****        -9.0000 -22.2500  25.7500 Du        
  13880 ****        -9.0000 -22.2500  26.0000 Du        
  13881 ****        -9.0000 -22.0000  25.5000 Du        
  13882 ****        -9.0000 -22.0000  25.7500 Du        
  13883 ****        -9.0000 -21.7500  25.5000 Du        
  13884 ****        -9.0000 -19.0000  31.2500 Du        
  13885 ****        -9.0000 -18.7500  31.0000 Du        
  13886 ****        -9.0000 -18.7500  31.2500 Du        
  13887 ****        -9.0000 -18.7500  31.5000 Du        
  13888 ****        -9.0000 -18.5000  31.0000 Du        
  13889 ****        -9.0000 -18.5000  31.2500 Du        
  13890 ****        -9.0000 -18.5000  31.5000 Du        
  13891 ****        -9.0000 -18.2500  30.7500 Du        
  13892 ****        -9.0000 -18.2500  31.0000 Du        
  13893 ****        -9.0000 -18.2500  31.2500 Du        
  13894 ****        -9.0000 -18.2500  31.5000 Du        
  13895 ****        -9.0000 -18.0000  30.7500 Du        
  13896 ****        -9.0000 -18.0000  31.0000 Du        
  13897 ****        -9.0000 -18.0000  31.2500 Du        
  13898 ****        -9.0000 -18.0000  31.5000 Du        
  13899 ****        -9.0000 -18.0000  31.7500 Du        
  13900 ****        -9.0000 -17.7500  30.5000 Du        
  13901 ****        -9.0000 -17.7500  30.7500 Du        
  13902 ****        -9.0000 -17.7500  31.0000 Du        
  13903 ****        -9.0000 -17.7500  31.2500 Du        
  13904 ****        -9.0000 -17.7500  31.5000 Du        
  13905 ****        -9.0000 -17.5000  30.5000 Du        
  13906 ****        -9.0000 -17.5000  30.7500 Du        
  13907 ****        -9.0000 -17.5000  31.0000 Du        
  13908 ****        -9.0000 -17.5000  31.2500 Du        
  13909 ****        -9.0000 -17.2500  30.5000 Du        
  13910 ****        -9.0000 -17.2500  30.7500 Du        
  13911 ****        -9.0000 -17.2500  31.0000 Du        
  13912 ****        -9.0000  11.2500   9.5000 Du        
  13913 ****        -9.0000  11.2500   9.7500 Du        
  13914 ****        -9.0000  11.5000   9.2500 Du        
  13915 ****        -9.0000  11.5000   9.5000 Du        
  13916 ****        -9.0000  11.5000   9.7500 Du        
  13917 ****        -9.0000  11.7500   9.0000 Du        
  13918 ****        -9.0000  11.7500   9.2500 Du        
  13919 ****        -9.0000  11.7500   9.5000 Du        
  13920 ****        -9.0000  11.7500   9.7500 Du        
  13921 ****        -9.0000  12.0000   9.0000 Du        
  13922 ****        -9.0000  12.0000   9.2500 Du        
  13923 ****        -9.0000  12.0000   9.5000 Du        
  13924 ****        -9.0000  12.2500   9.0000 Du        
  13925 ****        -9.0000  12.2500   9.2500 Du        
  13926 ****        -9.0000  12.7500  28.0000 Du        
  13927 ****        -9.0000  12.7500  28.2500 Du        
  13928 ****        -9.0000  12.7500  28.5000 Du        
  13929 ****        -9.0000  12.7500  28.7500 Du        
  13930 ****        -9.0000  13.0000  27.7500 Du        
  13931 ****        -9.0000  13.0000  28.0000 Du        
  13932 ****        -9.0000  13.0000  28.2500 Du        
  13933 ****        -9.0000  13.0000  28.5000 Du        
  13934 ****        -9.0000  13.0000  28.7500 Du        
  13935 ****        -9.0000  13.2500  27.2500 Du        
  13936 ****        -9.0000  13.2500  27.5000 Du        
  13937 ****        -9.0000  13.2500  27.7500 Du        
  13938 ****        -9.0000  13.2500  28.0000 Du        
  13939 ****        -9.0000  13.2500  28.2500 Du        
  13940 ****        -9.0000  13.2500  28.5000 Du        
  13941 ****        -9.0000  13.5000  27.0000 Du        
  13942 ****        -9.0000  13.5000  27.2500 Du        
  13943 ****        -9.0000  13.5000  27.5000 Du        
  13944 ****        -9.0000  13.5000  27.7500 Du        
  13945 ****        -9.0000  13.5000  28.0000 Du        
  13946 ****        -9.0000  13.5000  28.2500 Du        
  13947 ****        -9.0000  13.5000  28.5000 Du        
  13948 ****        -9.0000  13.7500  26.7500 Du        
  13949 ****        -9.0000  13.7500  27.0000 Du        
  13950 ****        -9.0000  13.7500  27.2500 Du        
  13951 ****        -9.0000  13.7500  27.5000 Du        
  13952 ****        -9.0000  13.7500  27.7500 Du        
  13953 ****        -9.0000  13.7500  28.0000 Du        
  13954 ****        -9.0000  13.7500  28.2500 Du        
  13955 ****        -9.0000  13.7500  28.5000 Du        
  13956 ****        -9.0000  14.0000  26.5000 Du        
  13957 ****        -9.0000  14.0000  26.7500 Du        
  13958 ****        -9.0000  14.0000  27.0000 Du        
  13959 ****        -9.0000  14.0000  27.2500 Du        
  13960 ****        -9.0000  14.0000  27.5000 Du        
  13961 ****        -9.0000  14.0000  27.7500 Du        
  13962 ****        -9.0000  14.0000  28.0000 Du        
  13963 ****        -9.0000  14.0000  28.2500 Du        
  13964 ****        -9.0000  14.2500  26.2500 Du        
  13965 ****        -9.0000  14.2500  26.5000 Du        
  13966 ****        -9.0000  14.2500  26.7500 Du        
  13967 ****        -9.0000  14.2500  27.0000 Du        
  13968 ****        -9.0000  14.2500  27.2500 Du        
  13969 ****        -9.0000  14.2500  27.5000 Du        
  13970 ****        -9.0000  14.2500  27.7500 Du        
  13971 ****        -9.0000  14.2500  28.0000 Du        
  13972 ****        -9.0000  14.2500  28.2500 Du        
  13973 ****        -9.0000  14.5000  26.2500 Du        
  13974 ****        -9.0000  14.5000  26.5000 Du        
  13975 ****        -9.0000  14.5000  26.7500 Du        
  13976 ****        -9.0000  14.5000  27.0000 Du        
  13977 ****        -9.0000  14.5000  27.2500 Du        
  13978 ****        -9.0000  14.5000  27.5000 Du        
  13979 ****        -9.0000  14.5000  27.7500 Du        
  13980 ****        -9.0000  14.5000  28.0000 Du        
  13981 ****        -9.0000  14.5000  28.2500 Du        
  13982 ****        -9.0000  14.7500  26.2500 Du        
  13983 ****        -9.0000  14.7500  26.5000 Du        
  13984 ****        -9.0000  14.7500  26.7500 Du        
  13985 ****        -9.0000  14.7500  27.0000 Du        
  13986 ****        -9.0000  14.7500  27.2500 Du        
  13987 ****        -9.0000  14.7500  27.5000 Du        
  13988 ****        -9.0000  14.7500  27.7500 Du        
  13989 ****        -9.0000  14.7500  28.0000 Du        
  13990 ****        -9.0000  15.0000  26.7500 Du        
  13991 ****        -9.0000  15.0000  27.0000 Du        
  13992 ****        -9.0000  15.0000  27.2500 Du        
  13993 ****        -9.0000  15.0000  27.5000 Du        
  13994 ****        -9.0000  15.0000  27.7500 Du        
  13995 ****        -9.0000  15.0000  28.0000 Du        
  13996 ****        -8.7500 -24.7500  25.7500 Du        
  13997 ****        -8.7500 -24.7500  26.0000 Du        
  13998 ****        -8.7500 -24.7500  26.2500 Du        
  13999 ****        -8.7500 -24.5000  25.5000 Du        
  14000 ****        -8.7500 -24.5000  25.7500 Du        
  14001 ****        -8.7500 -24.5000  26.0000 Du        
  14002 ****        -8.7500 -24.5000  26.2500 Du        
  14003 ****        -8.7500 -24.5000  26.5000 Du        
  14004 ****        -8.7500 -24.5000  26.7500 Du        
  14005 ****        -8.7500 -24.5000  27.0000 Du        
  14006 ****        -8.7500 -24.2500  25.5000 Du        
  14007 ****        -8.7500 -24.2500  25.7500 Du        
  14008 ****        -8.7500 -24.2500  26.0000 Du        
  14009 ****        -8.7500 -24.2500  26.2500 Du        
  14010 ****        -8.7500 -24.2500  26.5000 Du        
  14011 ****        -8.7500 -24.2500  26.7500 Du        
  14012 ****        -8.7500 -24.2500  27.0000 Du        
  14013 ****        -8.7500 -24.2500  27.2500 Du        
  14014 ****        -8.7500 -24.2500  27.5000 Du        
  14015 ****        -8.7500 -24.0000  25.5000 Du        
  14016 ****        -8.7500 -24.0000  25.7500 Du        
  14017 ****        -8.7500 -24.0000  26.0000 Du        
  14018 ****        -8.7500 -24.0000  26.2500 Du        
  14019 ****        -8.7500 -24.0000  26.5000 Du        
  14020 ****        -8.7500 -24.0000  26.7500 Du        
  14021 ****        -8.7500 -24.0000  27.0000 Du        
  14022 ****        -8.7500 -24.0000  27.2500 Du        
  14023 ****        -8.7500 -24.0000  27.5000 Du        
  14024 ****        -8.7500 -24.0000  27.7500 Du        
  14025 ****        -8.7500 -23.7500  25.5000 Du        
  14026 ****        -8.7500 -23.7500  25.7500 Du        
  14027 ****        -8.7500 -23.7500  26.0000 Du        
  14028 ****        -8.7500 -23.7500  26.2500 Du        
  14029 ****        -8.7500 -23.7500  26.5000 Du        
  14030 ****        -8.7500 -23.7500  26.7500 Du        
  14031 ****        -8.7500 -23.7500  27.0000 Du        
  14032 ****        -8.7500 -23.7500  27.2500 Du        
  14033 ****        -8.7500 -23.7500  27.5000 Du        
  14034 ****        -8.7500 -23.7500  27.7500 Du        
  14035 ****        -8.7500 -23.5000  25.2500 Du        
  14036 ****        -8.7500 -23.5000  25.5000 Du        
  14037 ****        -8.7500 -23.5000  25.7500 Du        
  14038 ****        -8.7500 -23.5000  26.0000 Du        
  14039 ****        -8.7500 -23.5000  26.2500 Du        
  14040 ****        -8.7500 -23.5000  26.5000 Du        
  14041 ****        -8.7500 -23.5000  26.7500 Du        
  14042 ****        -8.7500 -23.5000  27.0000 Du        
  14043 ****        -8.7500 -23.5000  27.2500 Du        
  14044 ****        -8.7500 -23.5000  27.5000 Du        
  14045 ****        -8.7500 -23.2500  25.2500 Du        
  14046 ****        -8.7500 -23.2500  25.5000 Du        
  14047 ****        -8.7500 -23.2500  25.7500 Du        
  14048 ****        -8.7500 -23.2500  26.0000 Du        
  14049 ****        -8.7500 -23.2500  26.2500 Du        
  14050 ****        -8.7500 -23.2500  26.5000 Du        
  14051 ****        -8.7500 -23.2500  26.7500 Du        
  14052 ****        -8.7500 -23.2500  27.0000 Du        
  14053 ****        -8.7500 -23.2500  27.2500 Du        
  14054 ****        -8.7500 -23.0000  25.2500 Du        
  14055 ****        -8.7500 -23.0000  25.5000 Du        
  14056 ****        -8.7500 -23.0000  25.7500 Du        
  14057 ****        -8.7500 -23.0000  26.0000 Du        
  14058 ****        -8.7500 -23.0000  26.2500 Du        
  14059 ****        -8.7500 -23.0000  26.5000 Du        
  14060 ****        -8.7500 -23.0000  26.7500 Du        
  14061 ****        -8.7500 -23.0000  27.0000 Du        
  14062 ****        -8.7500 -22.7500  25.2500 Du        
  14063 ****        -8.7500 -22.7500  25.5000 Du        
  14064 ****        -8.7500 -22.7500  25.7500 Du        
  14065 ****        -8.7500 -22.7500  26.0000 Du        
  14066 ****        -8.7500 -22.7500  26.2500 Du        
  14067 ****        -8.7500 -22.7500  26.5000 Du        
  14068 ****        -8.7500 -22.7500  26.7500 Du        
  14069 ****        -8.7500 -22.5000  25.2500 Du        
  14070 ****        -8.7500 -22.5000  25.5000 Du        
  14071 ****        -8.7500 -22.5000  25.7500 Du        
  14072 ****        -8.7500 -22.5000  26.0000 Du        
  14073 ****        -8.7500 -22.5000  26.2500 Du        
  14074 ****        -8.7500 -22.2500  25.2500 Du        
  14075 ****        -8.7500 -22.2500  25.5000 Du        
  14076 ****        -8.7500 -22.2500  25.7500 Du        
  14077 ****        -8.7500 -22.2500  26.0000 Du        
  14078 ****        -8.7500 -22.0000  25.5000 Du        
  14079 ****        -8.7500 -22.0000  25.7500 Du        
  14080 ****        -8.7500 -21.7500  25.5000 Du        
  14081 ****        -8.7500 -18.5000  31.0000 Du        
  14082 ****        -8.7500 -18.5000  31.2500 Du        
  14083 ****        -8.7500 -18.2500  30.7500 Du        
  14084 ****        -8.7500 -18.2500  31.0000 Du        
  14085 ****        -8.7500 -18.2500  31.2500 Du        
  14086 ****        -8.7500 -18.0000  30.7500 Du        
  14087 ****        -8.7500 -18.0000  31.0000 Du        
  14088 ****        -8.7500 -18.0000  31.2500 Du        
  14089 ****        -8.7500 -17.7500  30.5000 Du        
  14090 ****        -8.7500 -17.7500  30.7500 Du        
  14091 ****        -8.7500 -17.7500  31.0000 Du        
  14092 ****        -8.7500 -17.7500  31.2500 Du        
  14093 ****        -8.7500 -17.5000  30.5000 Du        
  14094 ****        -8.7500 -17.5000  30.7500 Du        
  14095 ****        -8.7500  11.0000   9.5000 Du        
  14096 ****        -8.7500  11.2500   9.5000 Du        
  14097 ****        -8.7500  11.2500   9.7500 Du        
  14098 ****        -8.7500  11.5000   9.2500 Du        
  14099 ****        -8.7500  11.5000   9.5000 Du        
  14100 ****        -8.7500  11.5000   9.7500 Du        
  14101 ****        -8.7500  11.7500   9.0000 Du        
  14102 ****        -8.7500  11.7500   9.2500 Du        
  14103 ****        -8.7500  11.7500   9.5000 Du        
  14104 ****        -8.7500  11.7500   9.7500 Du        
  14105 ****        -8.7500  12.0000   9.0000 Du        
  14106 ****        -8.7500  12.0000   9.2500 Du        
  14107 ****        -8.7500  12.0000   9.5000 Du        
  14108 ****        -8.7500  12.0000   9.7500 Du        
  14109 ****        -8.7500  12.2500   9.0000 Du        
  14110 ****        -8.7500  12.2500   9.2500 Du        
  14111 ****        -8.7500  12.2500   9.5000 Du        
  14112 ****        -8.7500  12.5000   9.0000 Du        
  14113 ****        -8.7500  12.5000   9.2500 Du        
  14114 ****        -8.7500  12.7500  27.7500 Du        
  14115 ****        -8.7500  12.7500  28.0000 Du        
  14116 ****        -8.7500  12.7500  28.2500 Du        
  14117 ****        -8.7500  12.7500  28.5000 Du        
  14118 ****        -8.7500  12.7500  28.7500 Du        
  14119 ****        -8.7500  13.0000  27.7500 Du        
  14120 ****        -8.7500  13.0000  28.0000 Du        
  14121 ****        -8.7500  13.0000  28.2500 Du        
  14122 ****        -8.7500  13.0000  28.5000 Du        
  14123 ****        -8.7500  13.0000  28.7500 Du        
  14124 ****        -8.7500  13.0000  29.0000 Du        
  14125 ****        -8.7500  13.2500  27.2500 Du        
  14126 ****        -8.7500  13.2500  27.5000 Du        
  14127 ****        -8.7500  13.2500  27.7500 Du        
  14128 ****        -8.7500  13.2500  28.0000 Du        
  14129 ****        -8.7500  13.2500  28.2500 Du        
  14130 ****        -8.7500  13.2500  28.5000 Du        
  14131 ****        -8.7500  13.2500  28.7500 Du        
  14132 ****        -8.7500  13.5000  27.0000 Du        
  14133 ****        -8.7500  13.5000  27.2500 Du        
  14134 ****        -8.7500  13.5000  27.5000 Du        
  14135 ****        -8.7500  13.5000  27.7500 Du        
  14136 ****        -8.7500  13.5000  28.0000 Du        
  14137 ****        -8.7500  13.5000  28.2500 Du        
  14138 ****        -8.7500  13.5000  28.5000 Du        
  14139 ****        -8.7500  13.5000  28.7500 Du        
  14140 ****        -8.7500  13.7500  26.7500 Du        
  14141 ****        -8.7500  13.7500  27.0000 Du        
  14142 ****        -8.7500  13.7500  27.2500 Du        
  14143 ****        -8.7500  13.7500  27.5000 Du        
  14144 ****        -8.7500  13.7500  27.7500 Du        
  14145 ****        -8.7500  13.7500  28.0000 Du        
  14146 ****        -8.7500  13.7500  28.2500 Du        
  14147 ****        -8.7500  13.7500  28.5000 Du        
  14148 ****        -8.7500  14.0000  26.5000 Du        
  14149 ****        -8.7500  14.0000  26.7500 Du        
  14150 ****        -8.7500  14.0000  27.0000 Du        
  14151 ****        -8.7500  14.0000  27.2500 Du        
  14152 ****        -8.7500  14.0000  27.5000 Du        
  14153 ****        -8.7500  14.0000  27.7500 Du        
  14154 ****        -8.7500  14.0000  28.0000 Du        
  14155 ****        -8.7500  14.0000  28.2500 Du        
  14156 ****        -8.7500  14.0000  28.5000 Du        
  14157 ****        -8.7500  14.2500  26.5000 Du        
  14158 ****        -8.7500  14.2500  26.7500 Du        
  14159 ****        -8.7500  14.2500  27.0000 Du        
  14160 ****        -8.7500  14.2500  27.2500 Du        
  14161 ****        -8.7500  14.2500  27.5000 Du        
  14162 ****        -8.7500  14.2500  27.7500 Du        
  14163 ****        -8.7500  14.2500  28.0000 Du        
  14164 ****        -8.7500  14.2500  28.2500 Du        
  14165 ****        -8.7500  14.5000  26.2500 Du        
  14166 ****        -8.7500  14.5000  26.5000 Du        
  14167 ****        -8.7500  14.5000  26.7500 Du        
  14168 ****        -8.7500  14.5000  27.0000 Du        
  14169 ****        -8.7500  14.5000  27.2500 Du        
  14170 ****        -8.7500  14.5000  27.5000 Du        
  14171 ****        -8.7500  14.5000  27.7500 Du        
  14172 ****        -8.7500  14.5000  28.0000 Du        
  14173 ****        -8.7500  14.5000  28.2500 Du        
  14174 ****        -8.7500  14.7500  26.2500 Du        
  14175 ****        -8.7500  14.7500  26.5000 Du        
  14176 ****        -8.7500  14.7500  26.7500 Du        
  14177 ****        -8.7500  14.7500  27.0000 Du        
  14178 ****        -8.7500  14.7500  27.2500 Du        
  14179 ****        -8.7500  14.7500  27.5000 Du        
  14180 ****        -8.7500  14.7500  27.7500 Du        
  14181 ****        -8.7500  14.7500  28.0000 Du        
  14182 ****        -8.7500  14.7500  28.2500 Du        
  14183 ****        -8.7500  15.0000  26.5000 Du        
  14184 ****        -8.7500  15.0000  26.7500 Du        
  14185 ****        -8.7500  15.0000  27.0000 Du        
  14186 ****        -8.7500  15.0000  27.2500 Du        
  14187 ****        -8.7500  15.0000  27.5000 Du        
  14188 ****        -8.7500  15.0000  27.7500 Du        
  14189 ****        -8.7500  15.0000  28.0000 Du        
  14190 ****        -8.7500  15.2500  27.2500 Du        
  14191 ****        -8.7500  15.2500  27.5000 Du        
  14192 ****        -8.7500  15.2500  27.7500 Du        
  14193 ****        -8.5000 -24.7500  25.7500 Du        
  14194 ****        -8.5000 -24.7500  26.0000 Du        
  14195 ****        -8.5000 -24.7500  26.2500 Du        
  14196 ****        -8.5000 -24.5000  25.5000 Du        
  14197 ****        -8.5000 -24.5000  25.7500 Du        
  14198 ****        -8.5000 -24.5000  26.0000 Du        
  14199 ****        -8.5000 -24.5000  26.2500 Du        
  14200 ****        -8.5000 -24.5000  26.5000 Du        
  14201 ****        -8.5000 -24.5000  26.7500 Du        
  14202 ****        -8.5000 -24.5000  27.0000 Du        
  14203 ****        -8.5000 -24.2500  25.5000 Du        
  14204 ****        -8.5000 -24.2500  25.7500 Du        
  14205 ****        -8.5000 -24.2500  26.0000 Du        
  14206 ****        -8.5000 -24.2500  26.2500 Du        
  14207 ****        -8.5000 -24.2500  26.5000 Du        
  14208 ****        -8.5000 -24.2500  26.7500 Du        
  14209 ****        -8.5000 -24.2500  27.0000 Du        
  14210 ****        -8.5000 -24.2500  27.2500 Du        
  14211 ****        -8.5000 -24.2500  27.5000 Du        
  14212 ****        -8.5000 -24.0000  25.5000 Du        
  14213 ****        -8.5000 -24.0000  25.7500 Du        
  14214 ****        -8.5000 -24.0000  26.0000 Du        
  14215 ****        -8.5000 -24.0000  26.2500 Du        
  14216 ****        -8.5000 -24.0000  26.5000 Du        
  14217 ****        -8.5000 -24.0000  26.7500 Du        
  14218 ****        -8.5000 -24.0000  27.0000 Du        
  14219 ****        -8.5000 -24.0000  27.2500 Du        
  14220 ****        -8.5000 -24.0000  27.5000 Du        
  14221 ****        -8.5000 -24.0000  27.7500 Du        
  14222 ****        -8.5000 -23.7500  25.5000 Du        
  14223 ****        -8.5000 -23.7500  25.7500 Du        
  14224 ****        -8.5000 -23.7500  26.0000 Du        
  14225 ****        -8.5000 -23.7500  26.2500 Du        
  14226 ****        -8.5000 -23.7500  26.5000 Du        
  14227 ****        -8.5000 -23.7500  26.7500 Du        
  14228 ****        -8.5000 -23.7500  27.0000 Du        
  14229 ****        -8.5000 -23.7500  27.2500 Du        
  14230 ****        -8.5000 -23.7500  27.5000 Du        
  14231 ****        -8.5000 -23.7500  27.7500 Du        
  14232 ****        -8.5000 -23.5000  25.5000 Du        
  14233 ****        -8.5000 -23.5000  25.7500 Du        
  14234 ****        -8.5000 -23.5000  26.0000 Du        
  14235 ****        -8.5000 -23.5000  26.2500 Du        
  14236 ****        -8.5000 -23.5000  26.5000 Du        
  14237 ****        -8.5000 -23.5000  26.7500 Du        
  14238 ****        -8.5000 -23.5000  27.0000 Du        
  14239 ****        -8.5000 -23.5000  27.2500 Du        
  14240 ****        -8.5000 -23.5000  27.5000 Du        
  14241 ****        -8.5000 -23.2500  25.5000 Du        
  14242 ****        -8.5000 -23.2500  25.7500 Du        
  14243 ****        -8.5000 -23.2500  26.0000 Du        
  14244 ****        -8.5000 -23.2500  26.2500 Du        
  14245 ****        -8.5000 -23.2500  26.5000 Du        
  14246 ****        -8.5000 -23.2500  26.7500 Du        
  14247 ****        -8.5000 -23.2500  27.0000 Du        
  14248 ****        -8.5000 -23.0000  25.5000 Du        
  14249 ****        -8.5000 -23.0000  25.7500 Du        
  14250 ****        -8.5000 -23.0000  26.0000 Du        
  14251 ****        -8.5000 -23.0000  26.2500 Du        
  14252 ****        -8.5000 -23.0000  26.5000 Du        
  14253 ****        -8.5000 -23.0000  26.7500 Du        
  14254 ****        -8.5000 -22.7500  25.5000 Du        
  14255 ****        -8.5000 -22.7500  25.7500 Du        
  14256 ****        -8.5000 -22.7500  26.0000 Du        
  14257 ****        -8.5000 -22.7500  26.2500 Du        
  14258 ****        -8.5000 -22.7500  26.5000 Du        
  14259 ****        -8.5000 -22.5000  25.5000 Du        
  14260 ****        -8.5000 -22.5000  25.7500 Du        
  14261 ****        -8.5000 -22.5000  26.0000 Du        
  14262 ****        -8.5000 -22.5000  26.2500 Du        
  14263 ****        -8.5000 -22.2500  25.5000 Du        
  14264 ****        -8.5000 -22.2500  25.7500 Du        
  14265 ****        -8.5000 -22.2500  26.0000 Du        
  14266 ****        -8.5000 -22.0000  25.5000 Du        
  14267 ****        -8.5000 -22.0000  25.7500 Du        
  14268 ****        -8.5000  10.7500   9.5000 Du        
  14269 ****        -8.5000  11.0000   9.2500 Du        
  14270 ****        -8.5000  11.0000   9.5000 Du        
  14271 ****        -8.5000  11.2500   9.0000 Du        
  14272 ****        -8.5000  11.2500   9.2500 Du        
  14273 ****        -8.5000  11.2500   9.5000 Du        
  14274 ****        -8.5000  11.2500   9.7500 Du        
  14275 ****        -8.5000  11.5000   9.0000 Du        
  14276 ****        -8.5000  11.5000   9.2500 Du        
  14277 ****        -8.5000  11.5000   9.5000 Du        
  14278 ****        -8.5000  11.5000   9.7500 Du        
  14279 ****        -8.5000  11.7500   9.0000 Du        
  14280 ****        -8.5000  11.7500   9.2500 Du        
  14281 ****        -8.5000  11.7500   9.5000 Du        
  14282 ****        -8.5000  11.7500   9.7500 Du        
  14283 ****        -8.5000  12.0000   9.0000 Du        
  14284 ****        -8.5000  12.0000   9.2500 Du        
  14285 ****        -8.5000  12.0000   9.5000 Du        
  14286 ****        -8.5000  12.0000   9.7500 Du        
  14287 ****        -8.5000  12.2500   9.0000 Du        
  14288 ****        -8.5000  12.2500   9.2500 Du        
  14289 ****        -8.5000  12.2500   9.5000 Du        
  14290 ****        -8.5000  12.5000   9.0000 Du        
  14291 ****        -8.5000  12.5000   9.2500 Du        
  14292 ****        -8.5000  12.5000   9.5000 Du        
  14293 ****        -8.5000  12.5000  28.0000 Du        
  14294 ****        -8.5000  12.5000  28.2500 Du        
  14295 ****        -8.5000  12.5000  28.5000 Du        
  14296 ****        -8.5000  12.5000  28.7500 Du        
  14297 ****        -8.5000  12.7500   9.0000 Du        
  14298 ****        -8.5000  12.7500  27.7500 Du        
  14299 ****        -8.5000  12.7500  28.0000 Du        
  14300 ****        -8.5000  12.7500  28.2500 Du        
  14301 ****        -8.5000  12.7500  28.5000 Du        
  14302 ****        -8.5000  12.7500  28.7500 Du        
  14303 ****        -8.5000  12.7500  29.0000 Du        
  14304 ****        -8.5000  13.0000  27.5000 Du        
  14305 ****        -8.5000  13.0000  27.7500 Du        
  14306 ****        -8.5000  13.0000  28.0000 Du        
  14307 ****        -8.5000  13.0000  28.2500 Du        
  14308 ****        -8.5000  13.0000  28.5000 Du        
  14309 ****        -8.5000  13.0000  28.7500 Du        
  14310 ****        -8.5000  13.0000  29.0000 Du        
  14311 ****        -8.5000  13.2500  27.5000 Du        
  14312 ****        -8.5000  13.2500  27.7500 Du        
  14313 ****        -8.5000  13.2500  28.0000 Du        
  14314 ****        -8.5000  13.2500  28.2500 Du        
  14315 ****        -8.5000  13.2500  28.5000 Du        
  14316 ****        -8.5000  13.2500  28.7500 Du        
  14317 ****        -8.5000  13.2500  29.0000 Du        
  14318 ****        -8.5000  13.5000  27.0000 Du        
  14319 ****        -8.5000  13.5000  27.2500 Du        
  14320 ****        -8.5000  13.5000  27.5000 Du        
  14321 ****        -8.5000  13.5000  27.7500 Du        
  14322 ****        -8.5000  13.5000  28.0000 Du        
  14323 ****        -8.5000  13.5000  28.2500 Du        
  14324 ****        -8.5000  13.5000  28.5000 Du        
  14325 ****        -8.5000  13.5000  28.7500 Du        
  14326 ****        -8.5000  13.5000  29.0000 Du        
  14327 ****        -8.5000  13.7500  26.7500 Du        
  14328 ****        -8.5000  13.7500  27.0000 Du        
  14329 ****        -8.5000  13.7500  27.2500 Du        
  14330 ****        -8.5000  13.7500  27.5000 Du        
  14331 ****        -8.5000  13.7500  27.7500 Du        
  14332 ****        -8.5000  13.7500  28.0000 Du        
  14333 ****        -8.5000  13.7500  28.2500 Du        
  14334 ****        -8.5000  13.7500  28.5000 Du        
  14335 ****        -8.5000  13.7500  28.7500 Du        
  14336 ****        -8.5000  14.0000  26.7500 Du        
  14337 ****        -8.5000  14.0000  27.0000 Du        
  14338 ****        -8.5000  14.0000  27.2500 Du        
  14339 ****        -8.5000  14.0000  27.5000 Du        
  14340 ****        -8.5000  14.0000  27.7500 Du        
  14341 ****        -8.5000  14.0000  28.0000 Du        
  14342 ****        -8.5000  14.0000  28.2500 Du        
  14343 ****        -8.5000  14.0000  28.5000 Du        
  14344 ****        -8.5000  14.0000  28.7500 Du        
  14345 ****        -8.5000  14.2500  26.5000 Du        
  14346 ****        -8.5000  14.2500  26.7500 Du        
  14347 ****        -8.5000  14.2500  27.0000 Du        
  14348 ****        -8.5000  14.2500  27.2500 Du        
  14349 ****        -8.5000  14.2500  27.5000 Du        
  14350 ****        -8.5000  14.2500  27.7500 Du        
  14351 ****        -8.5000  14.2500  28.0000 Du        
  14352 ****        -8.5000  14.2500  28.2500 Du        
  14353 ****        -8.5000  14.2500  28.5000 Du        
  14354 ****        -8.5000  14.5000  26.5000 Du        
  14355 ****        -8.5000  14.5000  26.7500 Du        
  14356 ****        -8.5000  14.5000  27.0000 Du        
  14357 ****        -8.5000  14.5000  27.2500 Du        
  14358 ****        -8.5000  14.5000  27.5000 Du        
  14359 ****        -8.5000  14.5000  27.7500 Du        
  14360 ****        -8.5000  14.5000  28.0000 Du        
  14361 ****        -8.5000  14.5000  28.2500 Du        
  14362 ****        -8.5000  14.5000  28.5000 Du        
  14363 ****        -8.5000  14.7500  26.7500 Du        
  14364 ****        -8.5000  14.7500  27.0000 Du        
  14365 ****        -8.5000  14.7500  27.2500 Du        
  14366 ****        -8.5000  14.7500  27.5000 Du        
  14367 ****        -8.5000  14.7500  27.7500 Du        
  14368 ****        -8.5000  14.7500  28.0000 Du        
  14369 ****        -8.5000  14.7500  28.2500 Du        
  14370 ****        -8.5000  15.0000  26.7500 Du        
  14371 ****        -8.5000  15.0000  27.0000 Du        
  14372 ****        -8.5000  15.0000  27.2500 Du        
  14373 ****        -8.5000  15.0000  27.5000 Du        
  14374 ****        -8.5000  15.0000  27.7500 Du        
  14375 ****        -8.5000  15.0000  28.0000 Du        
  14376 ****        -8.5000  15.0000  28.2500 Du        
  14377 ****        -8.5000  15.2500  27.0000 Du        
  14378 ****        -8.5000  15.2500  27.2500 Du        
  14379 ****        -8.5000  15.2500  27.5000 Du        
  14380 ****        -8.5000  15.2500  27.7500 Du        
  14381 ****        -8.2500 -24.7500  25.7500 Du        
  14382 ****        -8.2500 -24.7500  26.0000 Du        
  14383 ****        -8.2500 -24.7500  26.2500 Du        
  14384 ****        -8.2500 -24.5000  25.5000 Du        
  14385 ****        -8.2500 -24.5000  25.7500 Du        
  14386 ****        -8.2500 -24.5000  26.0000 Du        
  14387 ****        -8.2500 -24.5000  26.2500 Du        
  14388 ****        -8.2500 -24.5000  26.5000 Du        
  14389 ****        -8.2500 -24.5000  26.7500 Du        
  14390 ****        -8.2500 -24.5000  27.0000 Du        
  14391 ****        -8.2500 -24.2500  25.5000 Du        
  14392 ****        -8.2500 -24.2500  25.7500 Du        
  14393 ****        -8.2500 -24.2500  26.0000 Du        
  14394 ****        -8.2500 -24.2500  26.2500 Du        
  14395 ****        -8.2500 -24.2500  26.5000 Du        
  14396 ****        -8.2500 -24.2500  26.7500 Du        
  14397 ****        -8.2500 -24.2500  27.0000 Du        
  14398 ****        -8.2500 -24.2500  27.2500 Du        
  14399 ****        -8.2500 -24.2500  27.5000 Du        
  14400 ****        -8.2500 -24.2500  27.7500 Du        
  14401 ****        -8.2500 -24.0000  25.5000 Du        
  14402 ****        -8.2500 -24.0000  25.7500 Du        
  14403 ****        -8.2500 -24.0000  26.0000 Du        
  14404 ****        -8.2500 -24.0000  26.2500 Du        
  14405 ****        -8.2500 -24.0000  26.5000 Du        
  14406 ****        -8.2500 -24.0000  26.7500 Du        
  14407 ****        -8.2500 -24.0000  27.0000 Du        
  14408 ****        -8.2500 -24.0000  27.2500 Du        
  14409 ****        -8.2500 -24.0000  27.5000 Du        
  14410 ****        -8.2500 -24.0000  27.7500 Du        
  14411 ****        -8.2500 -23.7500  25.5000 Du        
  14412 ****        -8.2500 -23.7500  25.7500 Du        
  14413 ****        -8.2500 -23.7500  26.0000 Du        
  14414 ****        -8.2500 -23.7500  26.2500 Du        
  14415 ****        -8.2500 -23.7500  26.5000 Du        
  14416 ****        -8.2500 -23.7500  26.7500 Du        
  14417 ****        -8.2500 -23.7500  27.0000 Du        
  14418 ****        -8.2500 -23.7500  27.2500 Du        
  14419 ****        -8.2500 -23.7500  27.5000 Du        
  14420 ****        -8.2500 -23.7500  27.7500 Du        
  14421 ****        -8.2500 -23.5000  25.5000 Du        
  14422 ****        -8.2500 -23.5000  25.7500 Du        
  14423 ****        -8.2500 -23.5000  26.0000 Du        
  14424 ****        -8.2500 -23.5000  26.2500 Du        
  14425 ****        -8.2500 -23.5000  26.5000 Du        
  14426 ****        -8.2500 -23.5000  26.7500 Du        
  14427 ****        -8.2500 -23.5000  27.0000 Du        
  14428 ****        -8.2500 -23.5000  27.2500 Du        
  14429 ****        -8.2500 -23.2500  25.5000 Du        
  14430 ****        -8.2500 -23.2500  25.7500 Du        
  14431 ****        -8.2500 -23.2500  26.0000 Du        
  14432 ****        -8.2500 -23.2500  26.2500 Du        
  14433 ****        -8.2500 -23.2500  26.5000 Du        
  14434 ****        -8.2500 -23.2500  26.7500 Du        
  14435 ****        -8.2500 -23.2500  27.0000 Du        
  14436 ****        -8.2500 -23.0000  25.5000 Du        
  14437 ****        -8.2500 -23.0000  25.7500 Du        
  14438 ****        -8.2500 -23.0000  26.0000 Du        
  14439 ****        -8.2500 -23.0000  26.2500 Du        
  14440 ****        -8.2500 -23.0000  26.5000 Du        
  14441 ****        -8.2500 -23.0000  26.7500 Du        
  14442 ****        -8.2500 -22.7500  25.5000 Du        
  14443 ****        -8.2500 -22.7500  25.7500 Du        
  14444 ****        -8.2500 -22.7500  26.0000 Du        
  14445 ****        -8.2500 -22.7500  26.2500 Du        
  14446 ****        -8.2500 -22.7500  26.5000 Du        
  14447 ****        -8.2500 -22.5000  25.5000 Du        
  14448 ****        -8.2500 -22.5000  25.7500 Du        
  14449 ****        -8.2500 -22.5000  26.0000 Du        
  14450 ****        -8.2500 -22.2500  25.5000 Du        
  14451 ****        -8.2500 -22.2500  25.7500 Du        
  14452 ****        -8.2500   1.0000  22.0000 Du        
  14453 ****        -8.2500  11.0000   9.0000 Du        
  14454 ****        -8.2500  11.0000   9.2500 Du        
  14455 ****        -8.2500  11.0000   9.5000 Du        
  14456 ****        -8.2500  11.2500   9.0000 Du        
  14457 ****        -8.2500  11.2500   9.2500 Du        
  14458 ****        -8.2500  11.2500   9.5000 Du        
  14459 ****        -8.2500  11.2500   9.7500 Du        
  14460 ****        -8.2500  11.5000   9.0000 Du        
  14461 ****        -8.2500  11.5000   9.2500 Du        
  14462 ****        -8.2500  11.5000   9.5000 Du        
  14463 ****        -8.2500  11.5000   9.7500 Du        
  14464 ****        -8.2500  11.7500   9.0000 Du        
  14465 ****        -8.2500  11.7500   9.2500 Du        
  14466 ****        -8.2500  11.7500   9.5000 Du        
  14467 ****        -8.2500  11.7500   9.7500 Du        
  14468 ****        -8.2500  11.7500  10.0000 Du        
  14469 ****        -8.2500  12.0000   9.0000 Du        
  14470 ****        -8.2500  12.0000   9.2500 Du        
  14471 ****        -8.2500  12.0000   9.5000 Du        
  14472 ****        -8.2500  12.0000   9.7500 Du        
  14473 ****        -8.2500  12.0000  10.0000 Du        
  14474 ****        -8.2500  12.2500   9.0000 Du        
  14475 ****        -8.2500  12.2500   9.2500 Du        
  14476 ****        -8.2500  12.2500   9.5000 Du        
  14477 ****        -8.2500  12.2500   9.7500 Du        
  14478 ****        -8.2500  12.2500  28.0000 Du        
  14479 ****        -8.2500  12.2500  28.2500 Du        
  14480 ****        -8.2500  12.5000   9.0000 Du        
  14481 ****        -8.2500  12.5000   9.2500 Du        
  14482 ****        -8.2500  12.5000   9.5000 Du        
  14483 ****        -8.2500  12.5000  27.7500 Du        
  14484 ****        -8.2500  12.5000  28.0000 Du        
  14485 ****        -8.2500  12.5000  28.2500 Du        
  14486 ****        -8.2500  12.5000  28.5000 Du        
  14487 ****        -8.2500  12.5000  28.7500 Du        
  14488 ****        -8.2500  12.5000  29.0000 Du        
  14489 ****        -8.2500  12.7500   9.0000 Du        
  14490 ****        -8.2500  12.7500   9.2500 Du        
  14491 ****        -8.2500  12.7500  27.5000 Du        
  14492 ****        -8.2500  12.7500  27.7500 Du        
  14493 ****        -8.2500  12.7500  28.0000 Du        
  14494 ****        -8.2500  12.7500  28.2500 Du        
  14495 ****        -8.2500  12.7500  28.5000 Du        
  14496 ****        -8.2500  12.7500  28.7500 Du        
  14497 ****        -8.2500  12.7500  29.0000 Du        
  14498 ****        -8.2500  12.7500  29.2500 Du        
  14499 ****        -8.2500  13.0000  27.5000 Du        
  14500 ****        -8.2500  13.0000  27.7500 Du        
  14501 ****        -8.2500  13.0000  28.0000 Du        
  14502 ****        -8.2500  13.0000  28.2500 Du        
  14503 ****        -8.2500  13.0000  28.5000 Du        
  14504 ****        -8.2500  13.0000  28.7500 Du        
  14505 ****        -8.2500  13.0000  29.0000 Du        
  14506 ****        -8.2500  13.0000  29.2500 Du        
  14507 ****        -8.2500  13.2500  27.2500 Du        
  14508 ****        -8.2500  13.2500  27.5000 Du        
  14509 ****        -8.2500  13.2500  27.7500 Du        
  14510 ****        -8.2500  13.2500  28.0000 Du        
  14511 ****        -8.2500  13.2500  28.2500 Du        
  14512 ****        -8.2500  13.2500  28.5000 Du        
  14513 ****        -8.2500  13.2500  28.7500 Du        
  14514 ****        -8.2500  13.2500  29.0000 Du        
  14515 ****        -8.2500  13.2500  29.2500 Du        
  14516 ****        -8.2500  13.5000  27.0000 Du        
  14517 ****        -8.2500  13.5000  27.2500 Du        
  14518 ****        -8.2500  13.5000  27.5000 Du        
  14519 ****        -8.2500  13.5000  27.7500 Du        
  14520 ****        -8.2500  13.5000  28.0000 Du        
  14521 ****        -8.2500  13.5000  28.2500 Du        
  14522 ****        -8.2500  13.5000  28.5000 Du        
  14523 ****        -8.2500  13.5000  28.7500 Du        
  14524 ****        -8.2500  13.5000  29.0000 Du        
  14525 ****        -8.2500  13.5000  29.2500 Du        
  14526 ****        -8.2500  13.7500  27.0000 Du        
  14527 ****        -8.2500  13.7500  27.2500 Du        
  14528 ****        -8.2500  13.7500  27.5000 Du        
  14529 ****        -8.2500  13.7500  27.7500 Du        
  14530 ****        -8.2500  13.7500  28.0000 Du        
  14531 ****        -8.2500  13.7500  28.2500 Du        
  14532 ****        -8.2500  13.7500  28.5000 Du        
  14533 ****        -8.2500  13.7500  28.7500 Du        
  14534 ****        -8.2500  13.7500  29.0000 Du        
  14535 ****        -8.2500  14.0000  26.7500 Du        
  14536 ****        -8.2500  14.0000  27.0000 Du        
  14537 ****        -8.2500  14.0000  27.2500 Du        
  14538 ****        -8.2500  14.0000  27.5000 Du        
  14539 ****        -8.2500  14.0000  27.7500 Du        
  14540 ****        -8.2500  14.0000  28.0000 Du        
  14541 ****        -8.2500  14.0000  28.2500 Du        
  14542 ****        -8.2500  14.0000  28.5000 Du        
  14543 ****        -8.2500  14.0000  28.7500 Du        
  14544 ****        -8.2500  14.0000  29.0000 Du        
  14545 ****        -8.2500  14.2500  27.0000 Du        
  14546 ****        -8.2500  14.2500  27.2500 Du        
  14547 ****        -8.2500  14.2500  27.5000 Du        
  14548 ****        -8.2500  14.2500  27.7500 Du        
  14549 ****        -8.2500  14.2500  28.0000 Du        
  14550 ****        -8.2500  14.2500  28.2500 Du        
  14551 ****        -8.2500  14.2500  28.5000 Du        
  14552 ****        -8.2500  14.2500  28.7500 Du        
  14553 ****        -8.2500  14.5000  27.0000 Du        
  14554 ****        -8.2500  14.5000  27.2500 Du        
  14555 ****        -8.2500  14.5000  27.5000 Du        
  14556 ****        -8.2500  14.5000  27.7500 Du        
  14557 ****        -8.2500  14.5000  28.0000 Du        
  14558 ****        -8.2500  14.5000  28.2500 Du        
  14559 ****        -8.2500  14.5000  28.5000 Du        
  14560 ****        -8.2500  14.5000  28.7500 Du        
  14561 ****        -8.2500  14.7500  27.0000 Du        
  14562 ****        -8.2500  14.7500  27.2500 Du        
  14563 ****        -8.2500  14.7500  27.5000 Du        
  14564 ****        -8.2500  14.7500  27.7500 Du        
  14565 ****        -8.2500  14.7500  28.0000 Du        
  14566 ****        -8.2500  14.7500  28.2500 Du        
  14567 ****        -8.2500  14.7500  28.5000 Du        
  14568 ****        -8.2500  15.0000  27.0000 Du        
  14569 ****        -8.2500  15.0000  27.2500 Du        
  14570 ****        -8.2500  15.0000  27.5000 Du        
  14571 ****        -8.2500  15.0000  27.7500 Du        
  14572 ****        -8.2500  15.0000  28.0000 Du        
  14573 ****        -8.2500  15.0000  28.2500 Du        
  14574 ****        -8.2500  15.2500  27.2500 Du        
  14575 ****        -8.2500  15.2500  27.5000 Du        
  14576 ****        -8.2500  15.2500  27.7500 Du        
  14577 ****        -8.0000 -24.7500  25.7500 Du        
  14578 ****        -8.0000 -24.7500  26.0000 Du        
  14579 ****        -8.0000 -24.7500  26.2500 Du        
  14580 ****        -8.0000 -24.5000  25.5000 Du        
  14581 ****        -8.0000 -24.5000  25.7500 Du        
  14582 ****        -8.0000 -24.5000  26.0000 Du        
  14583 ****        -8.0000 -24.5000  26.2500 Du        
  14584 ****        -8.0000 -24.5000  26.5000 Du        
  14585 ****        -8.0000 -24.5000  26.7500 Du        
  14586 ****        -8.0000 -24.5000  27.0000 Du        
  14587 ****        -8.0000 -24.2500  25.5000 Du        
  14588 ****        -8.0000 -24.2500  25.7500 Du        
  14589 ****        -8.0000 -24.2500  26.0000 Du        
  14590 ****        -8.0000 -24.2500  26.2500 Du        
  14591 ****        -8.0000 -24.2500  26.5000 Du        
  14592 ****        -8.0000 -24.2500  26.7500 Du        
  14593 ****        -8.0000 -24.2500  27.0000 Du        
  14594 ****        -8.0000 -24.2500  27.2500 Du        
  14595 ****        -8.0000 -24.2500  27.5000 Du        
  14596 ****        -8.0000 -24.2500  27.7500 Du        
  14597 ****        -8.0000 -24.2500  28.0000 Du        
  14598 ****        -8.0000 -24.0000  25.5000 Du        
  14599 ****        -8.0000 -24.0000  25.7500 Du        
  14600 ****        -8.0000 -24.0000  26.0000 Du        
  14601 ****        -8.0000 -24.0000  26.2500 Du        
  14602 ****        -8.0000 -24.0000  26.5000 Du        
  14603 ****        -8.0000 -24.0000  26.7500 Du        
  14604 ****        -8.0000 -24.0000  27.0000 Du        
  14605 ****        -8.0000 -24.0000  27.2500 Du        
  14606 ****        -8.0000 -24.0000  27.5000 Du        
  14607 ****        -8.0000 -24.0000  27.7500 Du        
  14608 ****        -8.0000 -24.0000  28.0000 Du        
  14609 ****        -8.0000 -23.7500  25.5000 Du        
  14610 ****        -8.0000 -23.7500  25.7500 Du        
  14611 ****        -8.0000 -23.7500  26.0000 Du        
  14612 ****        -8.0000 -23.7500  26.2500 Du        
  14613 ****        -8.0000 -23.7500  26.5000 Du        
  14614 ****        -8.0000 -23.7500  26.7500 Du        
  14615 ****        -8.0000 -23.7500  27.0000 Du        
  14616 ****        -8.0000 -23.7500  27.2500 Du        
  14617 ****        -8.0000 -23.7500  27.5000 Du        
  14618 ****        -8.0000 -23.7500  27.7500 Du        
  14619 ****        -8.0000 -23.5000  25.5000 Du        
  14620 ****        -8.0000 -23.5000  25.7500 Du        
  14621 ****        -8.0000 -23.5000  26.0000 Du        
  14622 ****        -8.0000 -23.5000  26.2500 Du        
  14623 ****        -8.0000 -23.5000  26.5000 Du        
  14624 ****        -8.0000 -23.5000  26.7500 Du        
  14625 ****        -8.0000 -23.5000  27.0000 Du        
  14626 ****        -8.0000 -23.5000  27.2500 Du        
  14627 ****        -8.0000 -23.2500  25.5000 Du        
  14628 ****        -8.0000 -23.2500  25.7500 Du        
  14629 ****        -8.0000 -23.2500  26.0000 Du        
  14630 ****        -8.0000 -23.2500  26.2500 Du        
  14631 ****        -8.0000 -23.2500  26.5000 Du        
  14632 ****        -8.0000 -23.2500  26.7500 Du        
  14633 ****        -8.0000 -23.2500  27.0000 Du        
  14634 ****        -8.0000 -23.0000  25.5000 Du        
  14635 ****        -8.0000 -23.0000  25.7500 Du        
  14636 ****        -8.0000 -23.0000  26.0000 Du        
  14637 ****        -8.0000 -23.0000  26.2500 Du        
  14638 ****        -8.0000 -23.0000  26.5000 Du        
  14639 ****        -8.0000 -23.0000  26.7500 Du        
  14640 ****        -8.0000 -22.7500  25.5000 Du        
  14641 ****        -8.0000 -22.7500  25.7500 Du        
  14642 ****        -8.0000 -22.7500  26.0000 Du        
  14643 ****        -8.0000 -22.7500  26.2500 Du        
  14644 ****        -8.0000 -22.5000  25.7500 Du        
  14645 ****        -8.0000 -22.5000  26.0000 Du        
  14646 ****        -8.0000 -22.2500  25.7500 Du        
  14647 ****        -8.0000   0.0000  22.2500 Du        
  14648 ****        -8.0000   0.2500  22.0000 Du        
  14649 ****        -8.0000   0.2500  22.2500 Du        
  14650 ****        -8.0000   0.5000  21.7500 Du        
  14651 ****        -8.0000   0.5000  22.0000 Du        
  14652 ****        -8.0000   0.5000  22.2500 Du        
  14653 ****        -8.0000   0.7500  21.7500 Du        
  14654 ****        -8.0000   0.7500  22.0000 Du        
  14655 ****        -8.0000   0.7500  22.2500 Du        
  14656 ****        -8.0000   1.0000  22.0000 Du        
  14657 ****        -8.0000   1.0000  22.2500 Du        
  14658 ****        -8.0000  11.0000   9.0000 Du        
  14659 ****        -8.0000  11.0000   9.2500 Du        
  14660 ****        -8.0000  11.0000   9.5000 Du        
  14661 ****        -8.0000  11.2500   9.0000 Du        
  14662 ****        -8.0000  11.2500   9.2500 Du        
  14663 ****        -8.0000  11.2500   9.5000 Du        
  14664 ****        -8.0000  11.5000   9.0000 Du        
  14665 ****        -8.0000  11.5000   9.2500 Du        
  14666 ****        -8.0000  11.5000   9.5000 Du        
  14667 ****        -8.0000  11.5000   9.7500 Du        
  14668 ****        -8.0000  11.7500   9.0000 Du        
  14669 ****        -8.0000  11.7500   9.2500 Du        
  14670 ****        -8.0000  11.7500   9.5000 Du        
  14671 ****        -8.0000  11.7500   9.7500 Du        
  14672 ****        -8.0000  11.7500  10.0000 Du        
  14673 ****        -8.0000  12.0000   9.0000 Du        
  14674 ****        -8.0000  12.0000   9.2500 Du        
  14675 ****        -8.0000  12.0000   9.5000 Du        
  14676 ****        -8.0000  12.0000   9.7500 Du        
  14677 ****        -8.0000  12.0000  10.0000 Du        
  14678 ****        -8.0000  12.0000  28.0000 Du        
  14679 ****        -8.0000  12.0000  28.2500 Du        
  14680 ****        -8.0000  12.0000  28.5000 Du        
  14681 ****        -8.0000  12.0000  28.7500 Du        
  14682 ****        -8.0000  12.2500   9.0000 Du        
  14683 ****        -8.0000  12.2500   9.2500 Du        
  14684 ****        -8.0000  12.2500   9.5000 Du        
  14685 ****        -8.0000  12.2500   9.7500 Du        
  14686 ****        -8.0000  12.2500  27.7500 Du        
  14687 ****        -8.0000  12.2500  28.0000 Du        
  14688 ****        -8.0000  12.2500  28.2500 Du        
  14689 ****        -8.0000  12.2500  28.5000 Du        
  14690 ****        -8.0000  12.2500  28.7500 Du        
  14691 ****        -8.0000  12.5000   9.0000 Du        
  14692 ****        -8.0000  12.5000   9.2500 Du        
  14693 ****        -8.0000  12.5000   9.5000 Du        
  14694 ****        -8.0000  12.5000   9.7500 Du        
  14695 ****        -8.0000  12.5000  27.7500 Du        
  14696 ****        -8.0000  12.5000  28.0000 Du        
  14697 ****        -8.0000  12.5000  28.2500 Du        
  14698 ****        -8.0000  12.5000  28.5000 Du        
  14699 ****        -8.0000  12.5000  28.7500 Du        
  14700 ****        -8.0000  12.5000  29.0000 Du        
  14701 ****        -8.0000  12.5000  29.2500 Du        
  14702 ****        -8.0000  12.7500   9.0000 Du        
  14703 ****        -8.0000  12.7500   9.2500 Du        
  14704 ****        -8.0000  12.7500   9.5000 Du        
  14705 ****        -8.0000  12.7500  27.5000 Du        
  14706 ****        -8.0000  12.7500  27.7500 Du        
  14707 ****        -8.0000  12.7500  28.0000 Du        
  14708 ****        -8.0000  12.7500  28.2500 Du        
  14709 ****        -8.0000  12.7500  28.5000 Du        
  14710 ****        -8.0000  12.7500  28.7500 Du        
  14711 ****        -8.0000  12.7500  29.0000 Du        
  14712 ****        -8.0000  12.7500  29.2500 Du        
  14713 ****        -8.0000  13.0000   9.0000 Du        
  14714 ****        -8.0000  13.0000  27.2500 Du        
  14715 ****        -8.0000  13.0000  27.5000 Du        
  14716 ****        -8.0000  13.0000  27.7500 Du        
  14717 ****        -8.0000  13.0000  28.0000 Du        
  14718 ****        -8.0000  13.0000  28.2500 Du        
  14719 ****        -8.0000  13.0000  28.5000 Du        
  14720 ****        -8.0000  13.0000  28.7500 Du        
  14721 ****        -8.0000  13.0000  29.0000 Du        
  14722 ****        -8.0000  13.0000  29.2500 Du        
  14723 ****        -8.0000  13.0000  29.5000 Du        
  14724 ****        -8.0000  13.2500  27.2500 Du        
  14725 ****        -8.0000  13.2500  27.5000 Du        
  14726 ****        -8.0000  13.2500  27.7500 Du        
  14727 ****        -8.0000  13.2500  28.0000 Du        
  14728 ****        -8.0000  13.2500  28.2500 Du        
  14729 ****        -8.0000  13.2500  28.5000 Du        
  14730 ****        -8.0000  13.2500  28.7500 Du        
  14731 ****        -8.0000  13.2500  29.0000 Du        
  14732 ****        -8.0000  13.2500  29.2500 Du        
  14733 ****        -8.0000  13.2500  29.5000 Du        
  14734 ****        -8.0000  13.5000  27.0000 Du        
  14735 ****        -8.0000  13.5000  27.2500 Du        
  14736 ****        -8.0000  13.5000  27.5000 Du        
  14737 ****        -8.0000  13.5000  27.7500 Du        
  14738 ****        -8.0000  13.5000  28.0000 Du        
  14739 ****        -8.0000  13.5000  28.2500 Du        
  14740 ****        -8.0000  13.5000  28.5000 Du        
  14741 ****        -8.0000  13.5000  28.7500 Du        
  14742 ****        -8.0000  13.5000  29.0000 Du        
  14743 ****        -8.0000  13.5000  29.2500 Du        
  14744 ****        -8.0000  13.7500  27.0000 Du        
  14745 ****        -8.0000  13.7500  27.2500 Du        
  14746 ****        -8.0000  13.7500  27.5000 Du        
  14747 ****        -8.0000  13.7500  27.7500 Du        
  14748 ****        -8.0000  13.7500  28.0000 Du        
  14749 ****        -8.0000  13.7500  28.2500 Du        
  14750 ****        -8.0000  13.7500  28.5000 Du        
  14751 ****        -8.0000  13.7500  28.7500 Du        
  14752 ****        -8.0000  13.7500  29.0000 Du        
  14753 ****        -8.0000  13.7500  29.2500 Du        
  14754 ****        -8.0000  14.0000  27.2500 Du        
  14755 ****        -8.0000  14.0000  27.5000 Du        
  14756 ****        -8.0000  14.0000  27.7500 Du        
  14757 ****        -8.0000  14.0000  28.0000 Du        
  14758 ****        -8.0000  14.0000  28.2500 Du        
  14759 ****        -8.0000  14.0000  28.5000 Du        
  14760 ****        -8.0000  14.0000  28.7500 Du        
  14761 ****        -8.0000  14.0000  29.0000 Du        
  14762 ****        -8.0000  14.0000  29.2500 Du        
  14763 ****        -8.0000  14.2500  27.5000 Du        
  14764 ****        -8.0000  14.2500  27.7500 Du        
  14765 ****        -8.0000  14.2500  28.0000 Du        
  14766 ****        -8.0000  14.2500  28.2500 Du        
  14767 ****        -8.0000  14.2500  28.5000 Du        
  14768 ****        -8.0000  14.2500  28.7500 Du        
  14769 ****        -8.0000  14.2500  29.0000 Du        
  14770 ****        -8.0000  14.5000  27.5000 Du        
  14771 ****        -8.0000  14.5000  27.7500 Du        
  14772 ****        -8.0000  14.5000  28.0000 Du        
  14773 ****        -8.0000  14.5000  28.2500 Du        
  14774 ****        -8.0000  14.5000  28.5000 Du        
  14775 ****        -8.0000  14.5000  28.7500 Du        
  14776 ****        -8.0000  14.7500  27.5000 Du        
  14777 ****        -8.0000  14.7500  27.7500 Du        
  14778 ****        -8.0000  14.7500  28.0000 Du        
  14779 ****        -8.0000  14.7500  28.2500 Du        
  14780 ****        -8.0000  14.7500  28.5000 Du        
  14781 ****        -8.0000  14.7500  28.7500 Du        
  14782 ****        -8.0000  15.0000  27.5000 Du        
  14783 ****        -8.0000  15.0000  27.7500 Du        
  14784 ****        -8.0000  15.0000  28.0000 Du        
  14785 ****        -8.0000  15.0000  28.2500 Du        
  14786 ****        -8.0000  15.2500  27.7500 Du        
  14787 ****        -8.0000  15.2500  28.0000 Du        
  14788 ****        -7.7500 -24.7500  26.0000 Du        
  14789 ****        -7.7500 -24.5000  25.7500 Du        
  14790 ****        -7.7500 -24.5000  26.0000 Du        
  14791 ****        -7.7500 -24.5000  26.2500 Du        
  14792 ****        -7.7500 -24.5000  26.5000 Du        
  14793 ****        -7.7500 -24.5000  26.7500 Du        
  14794 ****        -7.7500 -24.5000  27.0000 Du        
  14795 ****        -7.7500 -24.2500  25.5000 Du        
  14796 ****        -7.7500 -24.2500  25.7500 Du        
  14797 ****        -7.7500 -24.2500  26.0000 Du        
  14798 ****        -7.7500 -24.2500  26.2500 Du        
  14799 ****        -7.7500 -24.2500  26.5000 Du        
  14800 ****        -7.7500 -24.2500  26.7500 Du        
  14801 ****        -7.7500 -24.2500  27.0000 Du        
  14802 ****        -7.7500 -24.2500  27.2500 Du        
  14803 ****        -7.7500 -24.2500  27.5000 Du        
  14804 ****        -7.7500 -24.2500  27.7500 Du        
  14805 ****        -7.7500 -24.2500  28.0000 Du        
  14806 ****        -7.7500 -24.0000  25.5000 Du        
  14807 ****        -7.7500 -24.0000  25.7500 Du        
  14808 ****        -7.7500 -24.0000  26.0000 Du        
  14809 ****        -7.7500 -24.0000  26.2500 Du        
  14810 ****        -7.7500 -24.0000  26.5000 Du        
  14811 ****        -7.7500 -24.0000  26.7500 Du        
  14812 ****        -7.7500 -24.0000  27.0000 Du        
  14813 ****        -7.7500 -24.0000  27.2500 Du        
  14814 ****        -7.7500 -24.0000  27.5000 Du        
  14815 ****        -7.7500 -24.0000  27.7500 Du        
  14816 ****        -7.7500 -24.0000  28.0000 Du        
  14817 ****        -7.7500 -23.7500  25.5000 Du        
  14818 ****        -7.7500 -23.7500  25.7500 Du        
  14819 ****        -7.7500 -23.7500  26.0000 Du        
  14820 ****        -7.7500 -23.7500  26.2500 Du        
  14821 ****        -7.7500 -23.7500  26.5000 Du        
  14822 ****        -7.7500 -23.7500  26.7500 Du        
  14823 ****        -7.7500 -23.7500  27.0000 Du        
  14824 ****        -7.7500 -23.7500  27.2500 Du        
  14825 ****        -7.7500 -23.7500  27.5000 Du        
  14826 ****        -7.7500 -23.5000  25.5000 Du        
  14827 ****        -7.7500 -23.5000  25.7500 Du        
  14828 ****        -7.7500 -23.5000  26.0000 Du        
  14829 ****        -7.7500 -23.5000  26.2500 Du        
  14830 ****        -7.7500 -23.5000  26.5000 Du        
  14831 ****        -7.7500 -23.5000  26.7500 Du        
  14832 ****        -7.7500 -23.5000  27.0000 Du        
  14833 ****        -7.7500 -23.5000  27.2500 Du        
  14834 ****        -7.7500 -23.2500  25.5000 Du        
  14835 ****        -7.7500 -23.2500  25.7500 Du        
  14836 ****        -7.7500 -23.2500  26.0000 Du        
  14837 ****        -7.7500 -23.2500  26.2500 Du        
  14838 ****        -7.7500 -23.2500  26.5000 Du        
  14839 ****        -7.7500 -23.2500  26.7500 Du        
  14840 ****        -7.7500 -23.2500  27.0000 Du        
  14841 ****        -7.7500 -23.0000  25.7500 Du        
  14842 ****        -7.7500 -23.0000  26.0000 Du        
  14843 ****        -7.7500 -23.0000  26.2500 Du        
  14844 ****        -7.7500 -23.0000  26.5000 Du        
  14845 ****        -7.7500 -22.7500  25.7500 Du        
  14846 ****        -7.7500 -22.7500  26.0000 Du        
  14847 ****        -7.7500 -22.7500  26.2500 Du        
  14848 ****        -7.7500 -22.5000  25.7500 Du        
  14849 ****        -7.7500 -22.5000  26.0000 Du        
  14850 ****        -7.7500  -0.2500  22.0000 Du        
  14851 ****        -7.7500  -0.2500  22.2500 Du        
  14852 ****        -7.7500   0.0000  21.7500 Du        
  14853 ****        -7.7500   0.0000  22.0000 Du        
  14854 ****        -7.7500   0.0000  22.2500 Du        
  14855 ****        -7.7500   0.2500  21.7500 Du        
  14856 ****        -7.7500   0.2500  22.0000 Du        
  14857 ****        -7.7500   0.2500  22.2500 Du        
  14858 ****        -7.7500   0.5000  21.5000 Du        
  14859 ****        -7.7500   0.5000  21.7500 Du        
  14860 ****        -7.7500   0.5000  22.0000 Du        
  14861 ****        -7.7500   0.5000  22.2500 Du        
  14862 ****        -7.7500   0.7500  21.7500 Du        
  14863 ****        -7.7500   0.7500  22.0000 Du        
  14864 ****        -7.7500   0.7500  22.2500 Du        
  14865 ****        -7.7500  11.0000   9.0000 Du        
  14866 ****        -7.7500  11.0000   9.2500 Du        
  14867 ****        -7.7500  11.2500   9.0000 Du        
  14868 ****        -7.7500  11.2500   9.2500 Du        
  14869 ****        -7.7500  11.2500   9.5000 Du        
  14870 ****        -7.7500  11.5000   9.0000 Du        
  14871 ****        -7.7500  11.5000   9.2500 Du        
  14872 ****        -7.7500  11.5000   9.5000 Du        
  14873 ****        -7.7500  11.7500   9.0000 Du        
  14874 ****        -7.7500  11.7500   9.2500 Du        
  14875 ****        -7.7500  11.7500   9.5000 Du        
  14876 ****        -7.7500  11.7500   9.7500 Du        
  14877 ****        -7.7500  11.7500  28.2500 Du        
  14878 ****        -7.7500  12.0000   9.0000 Du        
  14879 ****        -7.7500  12.0000   9.2500 Du        
  14880 ****        -7.7500  12.0000   9.5000 Du        
  14881 ****        -7.7500  12.0000   9.7500 Du        
  14882 ****        -7.7500  12.0000  10.0000 Du        
  14883 ****        -7.7500  12.0000  28.0000 Du        
  14884 ****        -7.7500  12.0000  28.2500 Du        
  14885 ****        -7.7500  12.0000  28.7500 Du        
  14886 ****        -7.7500  12.2500   9.0000 Du        
  14887 ****        -7.7500  12.2500   9.2500 Du        
  14888 ****        -7.7500  12.2500   9.5000 Du        
  14889 ****        -7.7500  12.2500   9.7500 Du        
  14890 ****        -7.7500  12.2500  10.0000 Du        
  14891 ****        -7.7500  12.2500  27.7500 Du        
  14892 ****        -7.7500  12.2500  28.0000 Du        
  14893 ****        -7.7500  12.2500  28.2500 Du        
  14894 ****        -7.7500  12.2500  28.5000 Du        
  14895 ****        -7.7500  12.2500  28.7500 Du        
  14896 ****        -7.7500  12.2500  29.0000 Du        
  14897 ****        -7.7500  12.5000   9.0000 Du        
  14898 ****        -7.7500  12.5000   9.2500 Du        
  14899 ****        -7.7500  12.5000   9.5000 Du        
  14900 ****        -7.7500  12.5000   9.7500 Du        
  14901 ****        -7.7500  12.5000  27.5000 Du        
  14902 ****        -7.7500  12.5000  27.7500 Du        
  14903 ****        -7.7500  12.5000  28.0000 Du        
  14904 ****        -7.7500  12.5000  28.2500 Du        
  14905 ****        -7.7500  12.5000  28.5000 Du        
  14906 ****        -7.7500  12.5000  28.7500 Du        
  14907 ****        -7.7500  12.5000  29.0000 Du        
  14908 ****        -7.7500  12.5000  29.2500 Du        
  14909 ****        -7.7500  12.7500   9.0000 Du        
  14910 ****        -7.7500  12.7500   9.2500 Du        
  14911 ****        -7.7500  12.7500   9.5000 Du        
  14912 ****        -7.7500  12.7500   9.7500 Du        
  14913 ****        -7.7500  12.7500  27.2500 Du        
  14914 ****        -7.7500  12.7500  27.5000 Du        
  14915 ****        -7.7500  12.7500  27.7500 Du        
  14916 ****        -7.7500  12.7500  28.0000 Du        
  14917 ****        -7.7500  12.7500  28.2500 Du        
  14918 ****        -7.7500  12.7500  28.5000 Du        
  14919 ****        -7.7500  12.7500  28.7500 Du        
  14920 ****        -7.7500  12.7500  29.0000 Du        
  14921 ****        -7.7500  12.7500  29.2500 Du        
  14922 ****        -7.7500  12.7500  29.5000 Du        
  14923 ****        -7.7500  13.0000   9.0000 Du        
  14924 ****        -7.7500  13.0000  27.2500 Du        
  14925 ****        -7.7500  13.0000  27.5000 Du        
  14926 ****        -7.7500  13.0000  27.7500 Du        
  14927 ****        -7.7500  13.0000  28.0000 Du        
  14928 ****        -7.7500  13.0000  28.2500 Du        
  14929 ****        -7.7500  13.0000  28.5000 Du        
  14930 ****        -7.7500  13.0000  28.7500 Du        
  14931 ****        -7.7500  13.0000  29.0000 Du        
  14932 ****        -7.7500  13.0000  29.2500 Du        
  14933 ****        -7.7500  13.0000  29.5000 Du        
  14934 ****        -7.7500  13.0000  29.7500 Du        
  14935 ****        -7.7500  13.2500  27.2500 Du        
  14936 ****        -7.7500  13.2500  27.5000 Du        
  14937 ****        -7.7500  13.2500  27.7500 Du        
  14938 ****        -7.7500  13.2500  28.0000 Du        
  14939 ****        -7.7500  13.2500  28.2500 Du        
  14940 ****        -7.7500  13.2500  28.5000 Du        
  14941 ****        -7.7500  13.2500  28.7500 Du        
  14942 ****        -7.7500  13.2500  29.0000 Du        
  14943 ****        -7.7500  13.2500  29.2500 Du        
  14944 ****        -7.7500  13.2500  29.5000 Du        
  14945 ****        -7.7500  13.2500  29.7500 Du        
  14946 ****        -7.7500  13.5000  27.2500 Du        
  14947 ****        -7.7500  13.5000  27.5000 Du        
  14948 ****        -7.7500  13.5000  27.7500 Du        
  14949 ****        -7.7500  13.5000  28.0000 Du        
  14950 ****        -7.7500  13.5000  28.2500 Du        
  14951 ****        -7.7500  13.5000  28.5000 Du        
  14952 ****        -7.7500  13.5000  28.7500 Du        
  14953 ****        -7.7500  13.5000  29.0000 Du        
  14954 ****        -7.7500  13.5000  29.2500 Du        
  14955 ****        -7.7500  13.5000  29.5000 Du        
  14956 ****        -7.7500  13.7500  27.5000 Du        
  14957 ****        -7.7500  13.7500  27.7500 Du        
  14958 ****        -7.7500  13.7500  28.0000 Du        
  14959 ****        -7.7500  13.7500  28.2500 Du        
  14960 ****        -7.7500  13.7500  28.5000 Du        
  14961 ****        -7.7500  13.7500  28.7500 Du        
  14962 ****        -7.7500  13.7500  29.0000 Du        
  14963 ****        -7.7500  13.7500  29.2500 Du        
  14964 ****        -7.7500  14.0000  27.5000 Du        
  14965 ****        -7.7500  14.0000  27.7500 Du        
  14966 ****        -7.7500  14.0000  28.0000 Du        
  14967 ****        -7.7500  14.0000  28.2500 Du        
  14968 ****        -7.7500  14.0000  28.5000 Du        
  14969 ****        -7.7500  14.0000  28.7500 Du        
  14970 ****        -7.7500  14.0000  29.0000 Du        
  14971 ****        -7.7500  14.0000  29.2500 Du        
  14972 ****        -7.7500  14.2500  27.7500 Du        
  14973 ****        -7.7500  14.2500  28.0000 Du        
  14974 ****        -7.7500  14.2500  28.2500 Du        
  14975 ****        -7.7500  14.2500  28.5000 Du        
  14976 ****        -7.7500  14.2500  28.7500 Du        
  14977 ****        -7.7500  14.2500  29.0000 Du        
  14978 ****        -7.7500  14.2500  29.2500 Du        
  14979 ****        -7.7500  14.5000  28.0000 Du        
  14980 ****        -7.7500  14.5000  28.2500 Du        
  14981 ****        -7.7500  14.5000  28.5000 Du        
  14982 ****        -7.7500  14.5000  28.7500 Du        
  14983 ****        -7.7500  14.5000  29.0000 Du        
  14984 ****        -7.7500  14.7500  28.0000 Du        
  14985 ****        -7.7500  14.7500  28.2500 Du        
  14986 ****        -7.7500  14.7500  28.5000 Du        
  14987 ****        -7.7500  14.7500  28.7500 Du        
  14988 ****        -7.7500  15.0000  28.0000 Du        
  14989 ****        -7.7500  15.0000  28.2500 Du        
  14990 ****        -7.7500  15.0000  28.5000 Du        
  14991 ****        -7.5000 -24.5000  25.7500 Du        
  14992 ****        -7.5000 -24.5000  26.0000 Du        
  14993 ****        -7.5000 -24.5000  26.2500 Du        
  14994 ****        -7.5000 -24.5000  26.5000 Du        
  14995 ****        -7.5000 -24.5000  26.7500 Du        
  14996 ****        -7.5000 -24.5000  27.0000 Du        
  14997 ****        -7.5000 -24.5000  27.2500 Du        
  14998 ****        -7.5000 -24.2500  25.7500 Du        
  14999 ****        -7.5000 -24.2500  26.0000 Du        
  15000 ****        -7.5000 -24.2500  26.2500 Du        
  15001 ****        -7.5000 -24.2500  26.5000 Du        
  15002 ****        -7.5000 -24.2500  26.7500 Du        
  15003 ****        -7.5000 -24.2500  27.0000 Du        
  15004 ****        -7.5000 -24.2500  27.2500 Du        
  15005 ****        -7.5000 -24.2500  27.5000 Du        
  15006 ****        -7.5000 -24.2500  27.7500 Du        
  15007 ****        -7.5000 -24.2500  28.0000 Du        
  15008 ****        -7.5000 -24.2500  28.2500 Du        
  15009 ****        -7.5000 -24.0000  25.5000 Du        
  15010 ****        -7.5000 -24.0000  25.7500 Du        
  15011 ****        -7.5000 -24.0000  26.0000 Du        
  15012 ****        -7.5000 -24.0000  26.2500 Du        
  15013 ****        -7.5000 -24.0000  26.5000 Du        
  15014 ****        -7.5000 -24.0000  26.7500 Du        
  15015 ****        -7.5000 -24.0000  27.0000 Du        
  15016 ****        -7.5000 -24.0000  27.2500 Du        
  15017 ****        -7.5000 -24.0000  27.5000 Du        
  15018 ****        -7.5000 -24.0000  27.7500 Du        
  15019 ****        -7.5000 -24.0000  28.0000 Du        
  15020 ****        -7.5000 -23.7500  25.7500 Du        
  15021 ****        -7.5000 -23.7500  26.0000 Du        
  15022 ****        -7.5000 -23.7500  26.2500 Du        
  15023 ****        -7.5000 -23.7500  26.5000 Du        
  15024 ****        -7.5000 -23.7500  26.7500 Du        
  15025 ****        -7.5000 -23.7500  27.0000 Du        
  15026 ****        -7.5000 -23.7500  27.2500 Du        
  15027 ****        -7.5000 -23.7500  27.5000 Du        
  15028 ****        -7.5000 -23.5000  25.7500 Du        
  15029 ****        -7.5000 -23.5000  26.0000 Du        
  15030 ****        -7.5000 -23.5000  26.2500 Du        
  15031 ****        -7.5000 -23.5000  26.5000 Du        
  15032 ****        -7.5000 -23.5000  26.7500 Du        
  15033 ****        -7.5000 -23.5000  27.0000 Du        
  15034 ****        -7.5000 -23.2500  25.7500 Du        
  15035 ****        -7.5000 -23.2500  26.0000 Du        
  15036 ****        -7.5000 -23.2500  26.2500 Du        
  15037 ****        -7.5000 -23.2500  26.5000 Du        
  15038 ****        -7.5000 -23.2500  26.7500 Du        
  15039 ****        -7.5000 -23.0000  25.7500 Du        
  15040 ****        -7.5000 -23.0000  26.0000 Du        
  15041 ****        -7.5000 -23.0000  26.2500 Du        
  15042 ****        -7.5000 -23.0000  26.5000 Du        
  15043 ****        -7.5000 -22.7500  25.7500 Du        
  15044 ****        -7.5000 -22.7500  26.0000 Du        
  15045 ****        -7.5000 -22.7500  26.2500 Du        
  15046 ****        -7.5000 -22.5000  26.0000 Du        
  15047 ****        -7.5000  -0.2500  21.7500 Du        
  15048 ****        -7.5000  -0.2500  22.0000 Du        
  15049 ****        -7.5000  -0.2500  22.2500 Du        
  15050 ****        -7.5000   0.0000  21.2500 Du        
  15051 ****        -7.5000   0.0000  21.5000 Du        
  15052 ****        -7.5000   0.0000  21.7500 Du        
  15053 ****        -7.5000   0.0000  22.0000 Du        
  15054 ****        -7.5000   0.0000  22.2500 Du        
  15055 ****        -7.5000   0.2500  21.2500 Du        
  15056 ****        -7.5000   0.2500  21.5000 Du        
  15057 ****        -7.5000   0.2500  21.7500 Du        
  15058 ****        -7.5000   0.2500  22.0000 Du        
  15059 ****        -7.5000   0.2500  22.2500 Du        
  15060 ****        -7.5000   0.5000  21.2500 Du        
  15061 ****        -7.5000   0.5000  21.5000 Du        
  15062 ****        -7.5000   0.5000  21.7500 Du        
  15063 ****        -7.5000   0.5000  22.0000 Du        
  15064 ****        -7.5000   0.5000  22.2500 Du        
  15065 ****        -7.5000   0.7500  22.0000 Du        
  15066 ****        -7.5000  11.0000   9.0000 Du        
  15067 ****        -7.5000  11.2500   9.0000 Du        
  15068 ****        -7.5000  11.2500   9.2500 Du        
  15069 ****        -7.5000  11.5000   9.0000 Du        
  15070 ****        -7.5000  11.5000   9.2500 Du        
  15071 ****        -7.5000  11.5000   9.5000 Du        
  15072 ****        -7.5000  11.7500   9.0000 Du        
  15073 ****        -7.5000  11.7500   9.2500 Du        
  15074 ****        -7.5000  11.7500   9.5000 Du        
  15075 ****        -7.5000  11.7500   9.7500 Du        
  15076 ****        -7.5000  11.7500  28.0000 Du        
  15077 ****        -7.5000  11.7500  28.2500 Du        
  15078 ****        -7.5000  11.7500  28.5000 Du        
  15079 ****        -7.5000  11.7500  28.7500 Du        
  15080 ****        -7.5000  12.0000   9.0000 Du        
  15081 ****        -7.5000  12.0000   9.2500 Du        
  15082 ****        -7.5000  12.0000   9.5000 Du        
  15083 ****        -7.5000  12.0000   9.7500 Du        
  15084 ****        -7.5000  12.0000  10.0000 Du        
  15085 ****        -7.5000  12.0000  27.7500 Du        
  15086 ****        -7.5000  12.0000  28.0000 Du        
  15087 ****        -7.5000  12.0000  28.2500 Du        
  15088 ****        -7.5000  12.0000  28.5000 Du        
  15089 ****        -7.5000  12.0000  28.7500 Du        
  15090 ****        -7.5000  12.2500   9.0000 Du        
  15091 ****        -7.5000  12.2500   9.2500 Du        
  15092 ****        -7.5000  12.2500   9.5000 Du        
  15093 ****        -7.5000  12.2500   9.7500 Du        
  15094 ****        -7.5000  12.2500  10.0000 Du        
  15095 ****        -7.5000  12.2500  27.5000 Du        
  15096 ****        -7.5000  12.2500  27.7500 Du        
  15097 ****        -7.5000  12.2500  28.0000 Du        
  15098 ****        -7.5000  12.2500  28.2500 Du        
  15099 ****        -7.5000  12.2500  28.5000 Du        
  15100 ****        -7.5000  12.2500  28.7500 Du        
  15101 ****        -7.5000  12.2500  29.0000 Du        
  15102 ****        -7.5000  12.5000   9.0000 Du        
  15103 ****        -7.5000  12.5000   9.2500 Du        
  15104 ****        -7.5000  12.5000   9.5000 Du        
  15105 ****        -7.5000  12.5000   9.7500 Du        
  15106 ****        -7.5000  12.5000  10.0000 Du        
  15107 ****        -7.5000  12.5000  27.2500 Du        
  15108 ****        -7.5000  12.5000  27.5000 Du        
  15109 ****        -7.5000  12.5000  27.7500 Du        
  15110 ****        -7.5000  12.5000  28.0000 Du        
  15111 ****        -7.5000  12.5000  28.2500 Du        
  15112 ****        -7.5000  12.5000  28.5000 Du        
  15113 ****        -7.5000  12.5000  28.7500 Du        
  15114 ****        -7.5000  12.5000  29.0000 Du        
  15115 ****        -7.5000  12.5000  29.2500 Du        
  15116 ****        -7.5000  12.5000  29.5000 Du        
  15117 ****        -7.5000  12.5000  29.7500 Du        
  15118 ****        -7.5000  12.5000  30.0000 Du        
  15119 ****        -7.5000  12.7500   9.0000 Du        
  15120 ****        -7.5000  12.7500   9.2500 Du        
  15121 ****        -7.5000  12.7500   9.5000 Du        
  15122 ****        -7.5000  12.7500   9.7500 Du        
  15123 ****        -7.5000  12.7500  27.2500 Du        
  15124 ****        -7.5000  12.7500  27.5000 Du        
  15125 ****        -7.5000  12.7500  27.7500 Du        
  15126 ****        -7.5000  12.7500  28.0000 Du        
  15127 ****        -7.5000  12.7500  28.2500 Du        
  15128 ****        -7.5000  12.7500  28.5000 Du        
  15129 ****        -7.5000  12.7500  28.7500 Du        
  15130 ****        -7.5000  12.7500  29.0000 Du        
  15131 ****        -7.5000  12.7500  29.2500 Du        
  15132 ****        -7.5000  12.7500  29.5000 Du        
  15133 ****        -7.5000  12.7500  29.7500 Du        
  15134 ****        -7.5000  12.7500  30.0000 Du        
  15135 ****        -7.5000  12.7500  30.2500 Du        
  15136 ****        -7.5000  13.0000  27.2500 Du        
  15137 ****        -7.5000  13.0000  27.5000 Du        
  15138 ****        -7.5000  13.0000  27.7500 Du        
  15139 ****        -7.5000  13.0000  28.0000 Du        
  15140 ****        -7.5000  13.0000  28.2500 Du        
  15141 ****        -7.5000  13.0000  28.5000 Du        
  15142 ****        -7.5000  13.0000  28.7500 Du        
  15143 ****        -7.5000  13.0000  29.0000 Du        
  15144 ****        -7.5000  13.0000  29.2500 Du        
  15145 ****        -7.5000  13.0000  29.5000 Du        
  15146 ****        -7.5000  13.0000  29.7500 Du        
  15147 ****        -7.5000  13.0000  30.0000 Du        
  15148 ****        -7.5000  13.0000  30.2500 Du        
  15149 ****        -7.5000  13.2500  27.5000 Du        
  15150 ****        -7.5000  13.2500  27.7500 Du        
  15151 ****        -7.5000  13.2500  28.0000 Du        
  15152 ****        -7.5000  13.2500  28.2500 Du        
  15153 ****        -7.5000  13.2500  28.5000 Du        
  15154 ****        -7.5000  13.2500  28.7500 Du        
  15155 ****        -7.5000  13.2500  29.0000 Du        
  15156 ****        -7.5000  13.2500  29.2500 Du        
  15157 ****        -7.5000  13.2500  29.5000 Du        
  15158 ****        -7.5000  13.2500  29.7500 Du        
  15159 ****        -7.5000  13.2500  30.0000 Du        
  15160 ****        -7.5000  13.2500  30.2500 Du        
  15161 ****        -7.5000  13.5000  27.5000 Du        
  15162 ****        -7.5000  13.5000  27.7500 Du        
  15163 ****        -7.5000  13.5000  28.0000 Du        
  15164 ****        -7.5000  13.5000  28.2500 Du        
  15165 ****        -7.5000  13.5000  28.5000 Du        
  15166 ****        -7.5000  13.5000  28.7500 Du        
  15167 ****        -7.5000  13.5000  29.0000 Du        
  15168 ****        -7.5000  13.5000  29.2500 Du        
  15169 ****        -7.5000  13.5000  29.5000 Du        
  15170 ****        -7.5000  13.5000  29.7500 Du        
  15171 ****        -7.5000  13.5000  30.0000 Du        
  15172 ****        -7.5000  13.7500  27.7500 Du        
  15173 ****        -7.5000  13.7500  28.0000 Du        
  15174 ****        -7.5000  13.7500  28.2500 Du        
  15175 ****        -7.5000  13.7500  28.5000 Du        
  15176 ****        -7.5000  13.7500  28.7500 Du        
  15177 ****        -7.5000  13.7500  29.0000 Du        
  15178 ****        -7.5000  13.7500  29.2500 Du        
  15179 ****        -7.5000  13.7500  29.5000 Du        
  15180 ****        -7.5000  13.7500  29.7500 Du        
  15181 ****        -7.5000  14.0000  28.0000 Du        
  15182 ****        -7.5000  14.0000  28.2500 Du        
  15183 ****        -7.5000  14.0000  28.5000 Du        
  15184 ****        -7.5000  14.0000  28.7500 Du        
  15185 ****        -7.5000  14.0000  29.0000 Du        
  15186 ****        -7.5000  14.0000  29.2500 Du        
  15187 ****        -7.5000  14.0000  29.5000 Du        
  15188 ****        -7.5000  14.2500  28.0000 Du        
  15189 ****        -7.5000  14.2500  28.2500 Du        
  15190 ****        -7.5000  14.2500  28.5000 Du        
  15191 ****        -7.5000  14.2500  28.7500 Du        
  15192 ****        -7.5000  14.2500  29.0000 Du        
  15193 ****        -7.5000  14.2500  29.2500 Du        
  15194 ****        -7.5000  14.5000  28.0000 Du        
  15195 ****        -7.5000  14.5000  28.2500 Du        
  15196 ****        -7.5000  14.5000  28.5000 Du        
  15197 ****        -7.5000  14.5000  28.7500 Du        
  15198 ****        -7.5000  14.5000  29.0000 Du        
  15199 ****        -7.5000  14.5000  29.2500 Du        
  15200 ****        -7.5000  14.7500  28.2500 Du        
  15201 ****        -7.5000  14.7500  28.5000 Du        
  15202 ****        -7.5000  14.7500  28.7500 Du        
  15203 ****        -7.5000  14.7500  29.0000 Du        
  15204 ****        -7.5000  15.0000  28.2500 Du        
  15205 ****        -7.5000  15.0000  28.5000 Du        
  15206 ****        -7.5000  15.0000  28.7500 Du        
  15207 ****        -7.2500 -24.2500  26.0000 Du        
  15208 ****        -7.2500 -24.2500  26.2500 Du        
  15209 ****        -7.2500 -24.2500  26.5000 Du        
  15210 ****        -7.2500 -24.2500  26.7500 Du        
  15211 ****        -7.2500 -24.2500  27.0000 Du        
  15212 ****        -7.2500 -24.2500  27.2500 Du        
  15213 ****        -7.2500 -24.2500  27.5000 Du        
  15214 ****        -7.2500 -24.2500  27.7500 Du        
  15215 ****        -7.2500 -24.2500  28.0000 Du        
  15216 ****        -7.2500 -24.0000  25.7500 Du        
  15217 ****        -7.2500 -24.0000  26.0000 Du        
  15218 ****        -7.2500 -24.0000  26.2500 Du        
  15219 ****        -7.2500 -24.0000  26.5000 Du        
  15220 ****        -7.2500 -24.0000  26.7500 Du        
  15221 ****        -7.2500 -24.0000  27.0000 Du        
  15222 ****        -7.2500 -24.0000  27.2500 Du        
  15223 ****        -7.2500 -24.0000  27.5000 Du        
  15224 ****        -7.2500 -24.0000  27.7500 Du        
  15225 ****        -7.2500 -24.0000  28.0000 Du        
  15226 ****        -7.2500 -23.7500  25.7500 Du        
  15227 ****        -7.2500 -23.7500  26.0000 Du        
  15228 ****        -7.2500 -23.7500  26.2500 Du        
  15229 ****        -7.2500 -23.7500  26.5000 Du        
  15230 ****        -7.2500 -23.7500  26.7500 Du        
  15231 ****        -7.2500 -23.7500  27.0000 Du        
  15232 ****        -7.2500 -23.7500  27.2500 Du        
  15233 ****        -7.2500 -23.7500  27.5000 Du        
  15234 ****        -7.2500 -23.5000  18.5000 Du        
  15235 ****        -7.2500 -23.5000  25.7500 Du        
  15236 ****        -7.2500 -23.5000  26.0000 Du        
  15237 ****        -7.2500 -23.5000  26.2500 Du        
  15238 ****        -7.2500 -23.5000  26.5000 Du        
  15239 ****        -7.2500 -23.5000  26.7500 Du        
  15240 ****        -7.2500 -23.5000  27.0000 Du        
  15241 ****        -7.2500 -23.2500  18.2500 Du        
  15242 ****        -7.2500 -23.2500  18.5000 Du        
  15243 ****        -7.2500 -23.2500  25.7500 Du        
  15244 ****        -7.2500 -23.2500  26.0000 Du        
  15245 ****        -7.2500 -23.2500  26.2500 Du        
  15246 ****        -7.2500 -23.2500  26.5000 Du        
  15247 ****        -7.2500 -23.2500  26.7500 Du        
  15248 ****        -7.2500 -23.0000  18.2500 Du        
  15249 ****        -7.2500 -23.0000  18.5000 Du        
  15250 ****        -7.2500 -23.0000  25.7500 Du        
  15251 ****        -7.2500 -23.0000  26.0000 Du        
  15252 ****        -7.2500 -23.0000  26.2500 Du        
  15253 ****        -7.2500 -23.0000  26.5000 Du        
  15254 ****        -7.2500 -22.7500  25.7500 Du        
  15255 ****        -7.2500 -22.7500  26.0000 Du        
  15256 ****        -7.2500 -22.7500  26.2500 Du        
  15257 ****        -7.2500  -0.7500  21.7500 Du        
  15258 ****        -7.2500  -0.7500  22.0000 Du        
  15259 ****        -7.2500  -0.7500  22.2500 Du        
  15260 ****        -7.2500  -0.5000  21.2500 Du        
  15261 ****        -7.2500  -0.5000  21.5000 Du        
  15262 ****        -7.2500  -0.5000  21.7500 Du        
  15263 ****        -7.2500  -0.5000  22.0000 Du        
  15264 ****        -7.2500  -0.2500  21.0000 Du        
  15265 ****        -7.2500  -0.2500  21.2500 Du        
  15266 ****        -7.2500  -0.2500  21.5000 Du        
  15267 ****        -7.2500  -0.2500  21.7500 Du        
  15268 ****        -7.2500  -0.2500  22.0000 Du        
  15269 ****        -7.2500  -0.2500  22.2500 Du        
  15270 ****        -7.2500   0.0000  21.0000 Du        
  15271 ****        -7.2500   0.0000  21.2500 Du        
  15272 ****        -7.2500   0.0000  21.5000 Du        
  15273 ****        -7.2500   0.0000  21.7500 Du        
  15274 ****        -7.2500   0.0000  22.0000 Du        
  15275 ****        -7.2500   0.0000  22.2500 Du        
  15276 ****        -7.2500   0.2500  21.0000 Du        
  15277 ****        -7.2500   0.2500  21.2500 Du        
  15278 ****        -7.2500   0.2500  21.5000 Du        
  15279 ****        -7.2500   0.2500  21.7500 Du        
  15280 ****        -7.2500   0.2500  22.0000 Du        
  15281 ****        -7.2500   0.2500  22.2500 Du        
  15282 ****        -7.2500   0.5000  21.0000 Du        
  15283 ****        -7.2500   0.5000  21.2500 Du        
  15284 ****        -7.2500   0.5000  21.5000 Du        
  15285 ****        -7.2500   0.5000  21.7500 Du        
  15286 ****        -7.2500   0.5000  22.0000 Du        
  15287 ****        -7.2500   0.7500  21.2500 Du        
  15288 ****        -7.2500  11.5000   9.2500 Du        
  15289 ****        -7.2500  11.5000   9.5000 Du        
  15290 ****        -7.2500  11.5000  28.2500 Du        
  15291 ****        -7.2500  11.5000  28.5000 Du        
  15292 ****        -7.2500  11.5000  28.7500 Du        
  15293 ****        -7.2500  11.7500   9.0000 Du        
  15294 ****        -7.2500  11.7500   9.2500 Du        
  15295 ****        -7.2500  11.7500   9.5000 Du        
  15296 ****        -7.2500  11.7500   9.7500 Du        
  15297 ****        -7.2500  11.7500  27.7500 Du        
  15298 ****        -7.2500  11.7500  28.0000 Du        
  15299 ****        -7.2500  11.7500  28.2500 Du        
  15300 ****        -7.2500  11.7500  28.5000 Du        
  15301 ****        -7.2500  11.7500  28.7500 Du        
  15302 ****        -7.2500  11.7500  29.0000 Du        
  15303 ****        -7.2500  11.7500  29.2500 Du        
  15304 ****        -7.2500  12.0000   9.0000 Du        
  15305 ****        -7.2500  12.0000   9.2500 Du        
  15306 ****        -7.2500  12.0000   9.5000 Du        
  15307 ****        -7.2500  12.0000   9.7500 Du        
  15308 ****        -7.2500  12.0000  27.5000 Du        
  15309 ****        -7.2500  12.0000  27.7500 Du        
  15310 ****        -7.2500  12.0000  28.0000 Du        
  15311 ****        -7.2500  12.0000  28.2500 Du        
  15312 ****        -7.2500  12.0000  28.5000 Du        
  15313 ****        -7.2500  12.0000  28.7500 Du        
  15314 ****        -7.2500  12.0000  29.0000 Du        
  15315 ****        -7.2500  12.0000  29.2500 Du        
  15316 ****        -7.2500  12.2500   9.0000 Du        
  15317 ****        -7.2500  12.2500   9.2500 Du        
  15318 ****        -7.2500  12.2500   9.5000 Du        
  15319 ****        -7.2500  12.2500   9.7500 Du        
  15320 ****        -7.2500  12.2500  10.0000 Du        
  15321 ****        -7.2500  12.2500  27.2500 Du        
  15322 ****        -7.2500  12.2500  27.5000 Du        
  15323 ****        -7.2500  12.2500  27.7500 Du        
  15324 ****        -7.2500  12.2500  28.0000 Du        
  15325 ****        -7.2500  12.2500  28.2500 Du        
  15326 ****        -7.2500  12.2500  28.5000 Du        
  15327 ****        -7.2500  12.2500  28.7500 Du        
  15328 ****        -7.2500  12.2500  29.0000 Du        
  15329 ****        -7.2500  12.2500  29.2500 Du        
  15330 ****        -7.2500  12.2500  29.5000 Du        
  15331 ****        -7.2500  12.5000   9.2500 Du        
  15332 ****        -7.2500  12.5000   9.5000 Du        
  15333 ****        -7.2500  12.5000   9.7500 Du        
  15334 ****        -7.2500  12.5000  10.0000 Du        
  15335 ****        -7.2500  12.5000  27.2500 Du        
  15336 ****        -7.2500  12.5000  27.5000 Du        
  15337 ****        -7.2500  12.5000  27.7500 Du        
  15338 ****        -7.2500  12.5000  28.0000 Du        
  15339 ****        -7.2500  12.5000  28.2500 Du        
  15340 ****        -7.2500  12.5000  28.5000 Du        
  15341 ****        -7.2500  12.5000  28.7500 Du        
  15342 ****        -7.2500  12.5000  29.0000 Du        
  15343 ****        -7.2500  12.5000  29.2500 Du        
  15344 ****        -7.2500  12.5000  29.5000 Du        
  15345 ****        -7.2500  12.5000  29.7500 Du        
  15346 ****        -7.2500  12.5000  30.0000 Du        
  15347 ****        -7.2500  12.5000  30.2500 Du        
  15348 ****        -7.2500  12.7500   9.5000 Du        
  15349 ****        -7.2500  12.7500   9.7500 Du        
  15350 ****        -7.2500  12.7500  27.2500 Du        
  15351 ****        -7.2500  12.7500  27.5000 Du        
  15352 ****        -7.2500  12.7500  27.7500 Du        
  15353 ****        -7.2500  12.7500  28.0000 Du        
  15354 ****        -7.2500  12.7500  28.2500 Du        
  15355 ****        -7.2500  12.7500  28.5000 Du        
  15356 ****        -7.2500  12.7500  28.7500 Du        
  15357 ****        -7.2500  12.7500  29.0000 Du        
  15358 ****        -7.2500  12.7500  29.2500 Du        
  15359 ****        -7.2500  12.7500  29.5000 Du        
  15360 ****        -7.2500  12.7500  29.7500 Du        
  15361 ****        -7.2500  12.7500  30.0000 Du        
  15362 ****        -7.2500  12.7500  30.2500 Du        
  15363 ****        -7.2500  13.0000  27.2500 Du        
  15364 ****        -7.2500  13.0000  27.5000 Du        
  15365 ****        -7.2500  13.0000  27.7500 Du        
  15366 ****        -7.2500  13.0000  28.0000 Du        
  15367 ****        -7.2500  13.0000  28.2500 Du        
  15368 ****        -7.2500  13.0000  28.5000 Du        
  15369 ****        -7.2500  13.0000  28.7500 Du        
  15370 ****        -7.2500  13.0000  29.0000 Du        
  15371 ****        -7.2500  13.0000  29.2500 Du        
  15372 ****        -7.2500  13.0000  29.5000 Du        
  15373 ****        -7.2500  13.0000  29.7500 Du        
  15374 ****        -7.2500  13.0000  30.0000 Du        
  15375 ****        -7.2500  13.0000  30.2500 Du        
  15376 ****        -7.2500  13.2500  27.5000 Du        
  15377 ****        -7.2500  13.2500  27.7500 Du        
  15378 ****        -7.2500  13.2500  28.0000 Du        
  15379 ****        -7.2500  13.2500  28.2500 Du        
  15380 ****        -7.2500  13.2500  28.5000 Du        
  15381 ****        -7.2500  13.2500  28.7500 Du        
  15382 ****        -7.2500  13.2500  29.0000 Du        
  15383 ****        -7.2500  13.2500  29.2500 Du        
  15384 ****        -7.2500  13.2500  29.5000 Du        
  15385 ****        -7.2500  13.2500  29.7500 Du        
  15386 ****        -7.2500  13.2500  30.0000 Du        
  15387 ****        -7.2500  13.2500  30.2500 Du        
  15388 ****        -7.2500  13.5000  27.7500 Du        
  15389 ****        -7.2500  13.5000  28.0000 Du        
  15390 ****        -7.2500  13.5000  28.2500 Du        
  15391 ****        -7.2500  13.5000  28.5000 Du        
  15392 ****        -7.2500  13.5000  28.7500 Du        
  15393 ****        -7.2500  13.5000  29.0000 Du        
  15394 ****        -7.2500  13.5000  29.2500 Du        
  15395 ****        -7.2500  13.5000  29.5000 Du        
  15396 ****        -7.2500  13.5000  29.7500 Du        
  15397 ****        -7.2500  13.5000  30.0000 Du        
  15398 ****        -7.2500  13.5000  30.2500 Du        
  15399 ****        -7.2500  13.7500  28.0000 Du        
  15400 ****        -7.2500  13.7500  28.2500 Du        
  15401 ****        -7.2500  13.7500  28.5000 Du        
  15402 ****        -7.2500  13.7500  28.7500 Du        
  15403 ****        -7.2500  13.7500  29.0000 Du        
  15404 ****        -7.2500  13.7500  29.2500 Du        
  15405 ****        -7.2500  13.7500  29.5000 Du        
  15406 ****        -7.2500  13.7500  29.7500 Du        
  15407 ****        -7.2500  13.7500  30.0000 Du        
  15408 ****        -7.2500  13.7500  30.2500 Du        
  15409 ****        -7.2500  14.0000  28.0000 Du        
  15410 ****        -7.2500  14.0000  28.2500 Du        
  15411 ****        -7.2500  14.0000  28.5000 Du        
  15412 ****        -7.2500  14.0000  28.7500 Du        
  15413 ****        -7.2500  14.0000  29.0000 Du        
  15414 ****        -7.2500  14.0000  29.2500 Du        
  15415 ****        -7.2500  14.0000  29.5000 Du        
  15416 ****        -7.2500  14.0000  29.7500 Du        
  15417 ****        -7.2500  14.0000  30.0000 Du        
  15418 ****        -7.2500  14.2500  28.2500 Du        
  15419 ****        -7.2500  14.2500  28.5000 Du        
  15420 ****        -7.2500  14.2500  28.7500 Du        
  15421 ****        -7.2500  14.2500  29.0000 Du        
  15422 ****        -7.2500  14.2500  29.2500 Du        
  15423 ****        -7.2500  14.2500  29.5000 Du        
  15424 ****        -7.2500  14.2500  29.7500 Du        
  15425 ****        -7.2500  14.5000  28.2500 Du        
  15426 ****        -7.2500  14.5000  28.5000 Du        
  15427 ****        -7.2500  14.5000  28.7500 Du        
  15428 ****        -7.2500  14.5000  29.0000 Du        
  15429 ****        -7.2500  14.5000  29.2500 Du        
  15430 ****        -7.2500  14.5000  29.5000 Du        
  15431 ****        -7.2500  14.5000  34.7500 Du        
  15432 ****        -7.2500  14.7500  28.2500 Du        
  15433 ****        -7.2500  14.7500  28.5000 Du        
  15434 ****        -7.2500  14.7500  28.7500 Du        
  15435 ****        -7.2500  14.7500  29.0000 Du        
  15436 ****        -7.2500  14.7500  29.2500 Du        
  15437 ****        -7.2500  14.7500  34.7500 Du        
  15438 ****        -7.2500  14.7500  35.0000 Du        
  15439 ****        -7.2500  15.0000  28.5000 Du        
  15440 ****        -7.2500  15.0000  28.7500 Du        
  15441 ****        -7.2500  15.0000  29.0000 Du        
  15442 ****        -7.2500  15.0000  35.0000 Du        
  15443 ****        -7.2500  15.0000  35.2500 Du        
  15444 ****        -7.2500  15.2500  35.2500 Du        
  15445 ****        -7.2500  15.5000  35.2500 Du        
  15446 ****        -7.0000 -24.2500  27.0000 Du        
  15447 ****        -7.0000 -24.2500  27.2500 Du        
  15448 ****        -7.0000 -24.2500  27.5000 Du        
  15449 ****        -7.0000 -24.2500  27.7500 Du        
  15450 ****        -7.0000 -24.2500  28.0000 Du        
  15451 ****        -7.0000 -24.0000  26.5000 Du        
  15452 ****        -7.0000 -24.0000  26.7500 Du        
  15453 ****        -7.0000 -24.0000  27.0000 Du        
  15454 ****        -7.0000 -24.0000  27.2500 Du        
  15455 ****        -7.0000 -24.0000  27.5000 Du        
  15456 ****        -7.0000 -24.0000  27.7500 Du        
  15457 ****        -7.0000 -23.7500  18.7500 Du        
  15458 ****        -7.0000 -23.7500  26.0000 Du        
  15459 ****        -7.0000 -23.7500  26.2500 Du        
  15460 ****        -7.0000 -23.7500  26.5000 Du        
  15461 ****        -7.0000 -23.7500  26.7500 Du        
  15462 ****        -7.0000 -23.7500  27.0000 Du        
  15463 ****        -7.0000 -23.7500  27.2500 Du        
  15464 ****        -7.0000 -23.5000  18.5000 Du        
  15465 ****        -7.0000 -23.5000  18.7500 Du        
  15466 ****        -7.0000 -23.5000  26.0000 Du        
  15467 ****        -7.0000 -23.5000  26.2500 Du        
  15468 ****        -7.0000 -23.5000  26.5000 Du        
  15469 ****        -7.0000 -23.5000  26.7500 Du        
  15470 ****        -7.0000 -23.2500  18.2500 Du        
  15471 ****        -7.0000 -23.2500  18.5000 Du        
  15472 ****        -7.0000 -23.2500  18.7500 Du        
  15473 ****        -7.0000 -23.2500  26.0000 Du        
  15474 ****        -7.0000 -23.2500  26.2500 Du        
  15475 ****        -7.0000 -23.2500  26.5000 Du        
  15476 ****        -7.0000 -23.0000  18.0000 Du        
  15477 ****        -7.0000 -23.0000  18.2500 Du        
  15478 ****        -7.0000 -23.0000  18.5000 Du        
  15479 ****        -7.0000 -23.0000  18.7500 Du        
  15480 ****        -7.0000 -23.0000  26.0000 Du        
  15481 ****        -7.0000 -23.0000  26.2500 Du        
  15482 ****        -7.0000 -22.7500  18.2500 Du        
  15483 ****        -7.0000 -22.7500  18.5000 Du        
  15484 ****        -7.0000 -22.7500  18.7500 Du        
  15485 ****        -7.0000 -22.7500  26.0000 Du        
  15486 ****        -7.0000 -16.7500  19.2500 Du        
  15487 ****        -7.0000 -16.7500  19.5000 Du        
  15488 ****        -7.0000 -16.7500  19.7500 Du        
  15489 ****        -7.0000 -16.5000  19.0000 Du        
  15490 ****        -7.0000 -16.5000  19.2500 Du        
  15491 ****        -7.0000 -16.5000  19.5000 Du        
  15492 ****        -7.0000 -16.5000  19.7500 Du        
  15493 ****        -7.0000 -16.2500  19.0000 Du        
  15494 ****        -7.0000 -16.2500  19.2500 Du        
  15495 ****        -7.0000 -16.2500  19.5000 Du        
  15496 ****        -7.0000 -16.2500  19.7500 Du        
  15497 ****        -7.0000 -16.2500  20.0000 Du        
  15498 ****        -7.0000 -16.0000  19.0000 Du        
  15499 ****        -7.0000 -16.0000  19.2500 Du        
  15500 ****        -7.0000  -1.0000  21.2500 Du        
  15501 ****        -7.0000  -1.0000  21.5000 Du        
  15502 ****        -7.0000  -1.0000  21.7500 Du        
  15503 ****        -7.0000  -1.0000  22.0000 Du        
  15504 ****        -7.0000  -0.7500  21.0000 Du        
  15505 ****        -7.0000  -0.7500  21.2500 Du        
  15506 ****        -7.0000  -0.7500  21.5000 Du        
  15507 ****        -7.0000  -0.7500  21.7500 Du        
  15508 ****        -7.0000  -0.7500  22.0000 Du        
  15509 ****        -7.0000  -0.7500  22.2500 Du        
  15510 ****        -7.0000  -0.5000  21.0000 Du        
  15511 ****        -7.0000  -0.5000  21.2500 Du        
  15512 ****        -7.0000  -0.5000  21.5000 Du        
  15513 ****        -7.0000  -0.5000  21.7500 Du        
  15514 ****        -7.0000  -0.5000  22.0000 Du        
  15515 ****        -7.0000  -0.5000  22.2500 Du        
  15516 ****        -7.0000  -0.2500  20.7500 Du        
  15517 ****        -7.0000  -0.2500  21.0000 Du        
  15518 ****        -7.0000  -0.2500  21.2500 Du        
  15519 ****        -7.0000  -0.2500  21.5000 Du        
  15520 ****        -7.0000  -0.2500  21.7500 Du        
  15521 ****        -7.0000  -0.2500  22.0000 Du        
  15522 ****        -7.0000  -0.2500  22.2500 Du        
  15523 ****        -7.0000   0.0000  20.7500 Du        
  15524 ****        -7.0000   0.0000  21.0000 Du        
  15525 ****        -7.0000   0.0000  21.2500 Du        
  15526 ****        -7.0000   0.0000  21.5000 Du        
  15527 ****        -7.0000   0.0000  21.7500 Du        
  15528 ****        -7.0000   0.0000  22.0000 Du        
  15529 ****        -7.0000   0.0000  22.2500 Du        
  15530 ****        -7.0000   0.2500  20.7500 Du        
  15531 ****        -7.0000   0.2500  21.0000 Du        
  15532 ****        -7.0000   0.2500  21.2500 Du        
  15533 ****        -7.0000   0.2500  21.5000 Du        
  15534 ****        -7.0000   0.2500  21.7500 Du        
  15535 ****        -7.0000   0.2500  22.0000 Du        
  15536 ****        -7.0000   0.5000  20.7500 Du        
  15537 ****        -7.0000   0.5000  21.0000 Du        
  15538 ****        -7.0000   0.5000  21.2500 Du        
  15539 ****        -7.0000   0.5000  21.5000 Du        
  15540 ****        -7.0000   5.7500  10.0000 Du        
  15541 ****        -7.0000   5.7500  10.2500 Du        
  15542 ****        -7.0000   6.0000  10.0000 Du        
  15543 ****        -7.0000   6.0000  10.2500 Du        
  15544 ****        -7.0000   6.2500  10.0000 Du        
  15545 ****        -7.0000   6.2500  10.2500 Du        
  15546 ****        -7.0000  11.0000  29.0000 Du        
  15547 ****        -7.0000  11.2500  28.5000 Du        
  15548 ****        -7.0000  11.2500  28.7500 Du        
  15549 ****        -7.0000  11.2500  29.0000 Du        
  15550 ****        -7.0000  11.5000  27.7500 Du        
  15551 ****        -7.0000  11.5000  28.0000 Du        
  15552 ****        -7.0000  11.5000  28.2500 Du        
  15553 ****        -7.0000  11.5000  28.5000 Du        
  15554 ****        -7.0000  11.5000  28.7500 Du        
  15555 ****        -7.0000  11.5000  29.0000 Du        
  15556 ****        -7.0000  11.5000  29.2500 Du        
  15557 ****        -7.0000  11.7500   9.5000 Du        
  15558 ****        -7.0000  11.7500  27.5000 Du        
  15559 ****        -7.0000  11.7500  27.7500 Du        
  15560 ****        -7.0000  11.7500  28.0000 Du        
  15561 ****        -7.0000  11.7500  28.2500 Du        
  15562 ****        -7.0000  11.7500  28.5000 Du        
  15563 ****        -7.0000  11.7500  28.7500 Du        
  15564 ****        -7.0000  11.7500  29.0000 Du        
  15565 ****        -7.0000  11.7500  29.2500 Du        
  15566 ****        -7.0000  12.0000   9.5000 Du        
  15567 ****        -7.0000  12.0000   9.7500 Du        
  15568 ****        -7.0000  12.0000  27.2500 Du        
  15569 ****        -7.0000  12.0000  27.5000 Du        
  15570 ****        -7.0000  12.0000  27.7500 Du        
  15571 ****        -7.0000  12.0000  28.0000 Du        
  15572 ****        -7.0000  12.0000  28.2500 Du        
  15573 ****        -7.0000  12.0000  28.5000 Du        
  15574 ****        -7.0000  12.0000  28.7500 Du        
  15575 ****        -7.0000  12.0000  29.0000 Du        
  15576 ****        -7.0000  12.0000  29.2500 Du        
  15577 ****        -7.0000  12.0000  29.5000 Du        
  15578 ****        -7.0000  12.0000  29.7500 Du        
  15579 ****        -7.0000  12.0000  30.0000 Du        
  15580 ****        -7.0000  12.2500   9.5000 Du        
  15581 ****        -7.0000  12.2500   9.7500 Du        
  15582 ****        -7.0000  12.2500  27.2500 Du        
  15583 ****        -7.0000  12.2500  27.5000 Du        
  15584 ****        -7.0000  12.2500  27.7500 Du        
  15585 ****        -7.0000  12.2500  28.0000 Du        
  15586 ****        -7.0000  12.2500  28.2500 Du        
  15587 ****        -7.0000  12.2500  28.5000 Du        
  15588 ****        -7.0000  12.2500  28.7500 Du        
  15589 ****        -7.0000  12.2500  29.0000 Du        
  15590 ****        -7.0000  12.2500  29.2500 Du        
  15591 ****        -7.0000  12.2500  29.5000 Du        
  15592 ****        -7.0000  12.2500  29.7500 Du        
  15593 ****        -7.0000  12.2500  30.0000 Du        
  15594 ****        -7.0000  12.5000   9.5000 Du        
  15595 ****        -7.0000  12.5000   9.7500 Du        
  15596 ****        -7.0000  12.5000  10.0000 Du        
  15597 ****        -7.0000  12.5000  27.0000 Du        
  15598 ****        -7.0000  12.5000  27.2500 Du        
  15599 ****        -7.0000  12.5000  27.5000 Du        
  15600 ****        -7.0000  12.5000  27.7500 Du        
  15601 ****        -7.0000  12.5000  28.0000 Du        
  15602 ****        -7.0000  12.5000  28.2500 Du        
  15603 ****        -7.0000  12.5000  28.5000 Du        
  15604 ****        -7.0000  12.5000  28.7500 Du        
  15605 ****        -7.0000  12.5000  29.0000 Du        
  15606 ****        -7.0000  12.5000  29.2500 Du        
  15607 ****        -7.0000  12.5000  29.5000 Du        
  15608 ****        -7.0000  12.5000  29.7500 Du        
  15609 ****        -7.0000  12.5000  30.0000 Du        
  15610 ****        -7.0000  12.5000  30.2500 Du        
  15611 ****        -7.0000  12.7500  27.2500 Du        
  15612 ****        -7.0000  12.7500  27.5000 Du        
  15613 ****        -7.0000  12.7500  27.7500 Du        
  15614 ****        -7.0000  12.7500  28.0000 Du        
  15615 ****        -7.0000  12.7500  28.2500 Du        
  15616 ****        -7.0000  12.7500  28.5000 Du        
  15617 ****        -7.0000  12.7500  28.7500 Du        
  15618 ****        -7.0000  12.7500  29.0000 Du        
  15619 ****        -7.0000  12.7500  29.2500 Du        
  15620 ****        -7.0000  12.7500  29.5000 Du        
  15621 ****        -7.0000  12.7500  29.7500 Du        
  15622 ****        -7.0000  12.7500  30.0000 Du        
  15623 ****        -7.0000  12.7500  30.2500 Du        
  15624 ****        -7.0000  13.0000  27.5000 Du        
  15625 ****        -7.0000  13.0000  27.7500 Du        
  15626 ****        -7.0000  13.0000  28.0000 Du        
  15627 ****        -7.0000  13.0000  28.2500 Du        
  15628 ****        -7.0000  13.0000  28.5000 Du        
  15629 ****        -7.0000  13.0000  28.7500 Du        
  15630 ****        -7.0000  13.0000  29.0000 Du        
  15631 ****        -7.0000  13.0000  29.2500 Du        
  15632 ****        -7.0000  13.0000  29.5000 Du        
  15633 ****        -7.0000  13.0000  29.7500 Du        
  15634 ****        -7.0000  13.0000  30.0000 Du        
  15635 ****        -7.0000  13.0000  30.2500 Du        
  15636 ****        -7.0000  13.0000  30.5000 Du        
  15637 ****        -7.0000  13.0000  30.7500 Du        
  15638 ****        -7.0000  13.0000  31.0000 Du        
  15639 ****        -7.0000  13.2500  27.7500 Du        
  15640 ****        -7.0000  13.2500  28.0000 Du        
  15641 ****        -7.0000  13.2500  28.2500 Du        
  15642 ****        -7.0000  13.2500  28.5000 Du        
  15643 ****        -7.0000  13.2500  28.7500 Du        
  15644 ****        -7.0000  13.2500  29.0000 Du        
  15645 ****        -7.0000  13.2500  29.2500 Du        
  15646 ****        -7.0000  13.2500  29.5000 Du        
  15647 ****        -7.0000  13.2500  29.7500 Du        
  15648 ****        -7.0000  13.2500  30.0000 Du        
  15649 ****        -7.0000  13.2500  30.2500 Du        
  15650 ****        -7.0000  13.2500  30.5000 Du        
  15651 ****        -7.0000  13.2500  30.7500 Du        
  15652 ****        -7.0000  13.2500  31.0000 Du        
  15653 ****        -7.0000  13.5000  28.0000 Du        
  15654 ****        -7.0000  13.5000  28.2500 Du        
  15655 ****        -7.0000  13.5000  28.5000 Du        
  15656 ****        -7.0000  13.5000  28.7500 Du        
  15657 ****        -7.0000  13.5000  29.0000 Du        
  15658 ****        -7.0000  13.5000  29.2500 Du        
  15659 ****        -7.0000  13.5000  29.5000 Du        
  15660 ****        -7.0000  13.5000  29.7500 Du        
  15661 ****        -7.0000  13.5000  30.0000 Du        
  15662 ****        -7.0000  13.5000  30.2500 Du        
  15663 ****        -7.0000  13.5000  30.5000 Du        
  15664 ****        -7.0000  13.5000  30.7500 Du        
  15665 ****        -7.0000  13.5000  31.0000 Du        
  15666 ****        -7.0000  13.7500  28.0000 Du        
  15667 ****        -7.0000  13.7500  28.2500 Du        
  15668 ****        -7.0000  13.7500  28.5000 Du        
  15669 ****        -7.0000  13.7500  28.7500 Du        
  15670 ****        -7.0000  13.7500  29.0000 Du        
  15671 ****        -7.0000  13.7500  29.2500 Du        
  15672 ****        -7.0000  13.7500  29.5000 Du        
  15673 ****        -7.0000  13.7500  29.7500 Du        
  15674 ****        -7.0000  13.7500  30.0000 Du        
  15675 ****        -7.0000  13.7500  30.2500 Du        
  15676 ****        -7.0000  13.7500  30.5000 Du        
  15677 ****        -7.0000  13.7500  32.7500 Du        
  15678 ****        -7.0000  14.0000  28.2500 Du        
  15679 ****        -7.0000  14.0000  28.5000 Du        
  15680 ****        -7.0000  14.0000  28.7500 Du        
  15681 ****        -7.0000  14.0000  29.0000 Du        
  15682 ****        -7.0000  14.0000  29.2500 Du        
  15683 ****        -7.0000  14.0000  29.5000 Du        
  15684 ****        -7.0000  14.0000  29.7500 Du        
  15685 ****        -7.0000  14.0000  30.0000 Du        
  15686 ****        -7.0000  14.0000  30.2500 Du        
  15687 ****        -7.0000  14.2500  28.5000 Du        
  15688 ****        -7.0000  14.2500  28.7500 Du        
  15689 ****        -7.0000  14.2500  29.0000 Du        
  15690 ****        -7.0000  14.2500  29.2500 Du        
  15691 ****        -7.0000  14.2500  29.5000 Du        
  15692 ****        -7.0000  14.2500  29.7500 Du        
  15693 ****        -7.0000  14.2500  30.0000 Du        
  15694 ****        -7.0000  14.2500  34.0000 Du        
  15695 ****        -7.0000  14.5000  28.5000 Du        
  15696 ****        -7.0000  14.5000  28.7500 Du        
  15697 ****        -7.0000  14.5000  29.0000 Du        
  15698 ****        -7.0000  14.5000  29.2500 Du        
  15699 ****        -7.0000  14.5000  29.5000 Du        
  15700 ****        -7.0000  14.5000  29.7500 Du        
  15701 ****        -7.0000  14.5000  34.0000 Du        
  15702 ****        -7.0000  14.5000  34.2500 Du        
  15703 ****        -7.0000  14.5000  34.5000 Du        
  15704 ****        -7.0000  14.5000  34.7500 Du        
  15705 ****        -7.0000  14.5000  35.0000 Du        
  15706 ****        -7.0000  14.7500  28.5000 Du        
  15707 ****        -7.0000  14.7500  28.7500 Du        
  15708 ****        -7.0000  14.7500  29.0000 Du        
  15709 ****        -7.0000  14.7500  29.2500 Du        
  15710 ****        -7.0000  14.7500  29.5000 Du        
  15711 ****        -7.0000  14.7500  34.2500 Du        
  15712 ****        -7.0000  14.7500  34.5000 Du        
  15713 ****        -7.0000  14.7500  34.7500 Du        
  15714 ****        -7.0000  14.7500  35.0000 Du        
  15715 ****        -7.0000  14.7500  35.2500 Du        
  15716 ****        -7.0000  15.0000  28.5000 Du        
  15717 ****        -7.0000  15.0000  28.7500 Du        
  15718 ****        -7.0000  15.0000  29.0000 Du        
  15719 ****        -7.0000  15.0000  29.2500 Du        
  15720 ****        -7.0000  15.0000  34.5000 Du        
  15721 ****        -7.0000  15.0000  34.7500 Du        
  15722 ****        -7.0000  15.0000  35.0000 Du        
  15723 ****        -7.0000  15.0000  35.2500 Du        
  15724 ****        -7.0000  15.2500  28.7500 Du        
  15725 ****        -7.0000  15.2500  34.7500 Du        
  15726 ****        -7.0000  15.2500  35.0000 Du        
  15727 ****        -7.0000  15.2500  35.2500 Du        
  15728 ****        -7.0000  15.5000  35.0000 Du        
  15729 ****        -7.0000  15.5000  35.2500 Du        
  15730 ****        -6.7500 -23.7500  18.7500 Du        
  15731 ****        -6.7500 -23.5000  18.5000 Du        
  15732 ****        -6.7500 -23.5000  18.7500 Du        
  15733 ****        -6.7500 -23.2500  18.2500 Du        
  15734 ****        -6.7500 -23.2500  18.5000 Du        
  15735 ****        -6.7500 -23.2500  18.7500 Du        
  15736 ****        -6.7500 -23.0000  18.2500 Du        
  15737 ****        -6.7500 -23.0000  18.5000 Du        
  15738 ****        -6.7500 -23.0000  18.7500 Du        
  15739 ****        -6.7500 -22.7500  18.2500 Du        
  15740 ****        -6.7500 -22.7500  18.5000 Du        
  15741 ****        -6.7500 -22.7500  18.7500 Du        
  15742 ****        -6.7500 -22.7500  19.0000 Du        
  15743 ****        -6.7500 -22.5000  18.2500 Du        
  15744 ****        -6.7500 -22.5000  18.5000 Du        
  15745 ****        -6.7500 -22.5000  18.7500 Du        
  15746 ****        -6.7500 -22.2500  18.7500 Du        
  15747 ****        -6.7500 -17.2500  19.2500 Du        
  15748 ****        -6.7500 -17.2500  19.5000 Du        
  15749 ****        -6.7500 -17.2500  19.7500 Du        
  15750 ****        -6.7500 -17.2500  20.0000 Du        
  15751 ****        -6.7500 -17.0000  19.0000 Du        
  15752 ****        -6.7500 -17.0000  19.2500 Du        
  15753 ****        -6.7500 -17.0000  19.5000 Du        
  15754 ****        -6.7500 -17.0000  19.7500 Du        
  15755 ****        -6.7500 -17.0000  20.0000 Du        
  15756 ****        -6.7500 -16.7500  19.0000 Du        
  15757 ****        -6.7500 -16.7500  19.2500 Du        
  15758 ****        -6.7500 -16.7500  19.5000 Du        
  15759 ****        -6.7500 -16.7500  19.7500 Du        
  15760 ****        -6.7500 -16.7500  20.0000 Du        
  15761 ****        -6.7500 -16.7500  20.2500 Du        
  15762 ****        -6.7500 -16.5000  18.7500 Du        
  15763 ****        -6.7500 -16.5000  19.0000 Du        
  15764 ****        -6.7500 -16.5000  19.2500 Du        
  15765 ****        -6.7500 -16.5000  19.5000 Du        
  15766 ****        -6.7500 -16.5000  19.7500 Du        
  15767 ****        -6.7500 -16.5000  20.0000 Du        
  15768 ****        -6.7500 -16.2500  18.5000 Du        
  15769 ****        -6.7500 -16.2500  18.7500 Du        
  15770 ****        -6.7500 -16.2500  19.0000 Du        
  15771 ****        -6.7500 -16.2500  19.2500 Du        
  15772 ****        -6.7500 -16.2500  19.5000 Du        
  15773 ****        -6.7500 -16.2500  19.7500 Du        
  15774 ****        -6.7500 -16.2500  20.0000 Du        
  15775 ****        -6.7500 -16.2500  20.2500 Du        
  15776 ****        -6.7500 -16.0000  18.5000 Du        
  15777 ****        -6.7500 -16.0000  18.7500 Du        
  15778 ****        -6.7500 -16.0000  19.0000 Du        
  15779 ****        -6.7500 -16.0000  19.2500 Du        
  15780 ****        -6.7500 -16.0000  19.5000 Du        
  15781 ****        -6.7500 -16.0000  19.7500 Du        
  15782 ****        -6.7500 -16.0000  20.0000 Du        
  15783 ****        -6.7500 -16.0000  20.2500 Du        
  15784 ****        -6.7500 -15.7500  18.7500 Du        
  15785 ****        -6.7500 -15.7500  19.0000 Du        
  15786 ****        -6.7500 -15.7500  19.2500 Du        
  15787 ****        -6.7500 -15.7500  19.5000 Du        
  15788 ****        -6.7500 -15.7500  19.7500 Du        
  15789 ****        -6.7500 -15.7500  20.0000 Du        
  15790 ****        -6.7500 -15.7500  20.2500 Du        
  15791 ****        -6.7500 -15.5000  19.0000 Du        
  15792 ****        -6.7500 -15.5000  19.2500 Du        
  15793 ****        -6.7500  -1.2500  21.2500 Du        
  15794 ****        -6.7500  -1.2500  21.7500 Du        
  15795 ****        -6.7500  -1.0000  21.0000 Du        
  15796 ****        -6.7500  -1.0000  21.2500 Du        
  15797 ****        -6.7500  -1.0000  21.5000 Du        
  15798 ****        -6.7500  -1.0000  21.7500 Du        
  15799 ****        -6.7500  -1.0000  22.0000 Du        
  15800 ****        -6.7500  -0.7500  20.7500 Du        
  15801 ****        -6.7500  -0.7500  21.0000 Du        
  15802 ****        -6.7500  -0.7500  21.2500 Du        
  15803 ****        -6.7500  -0.7500  21.5000 Du        
  15804 ****        -6.7500  -0.7500  21.7500 Du        
  15805 ****        -6.7500  -0.7500  22.0000 Du        
  15806 ****        -6.7500  -0.5000  20.5000 Du        
  15807 ****        -6.7500  -0.5000  20.7500 Du        
  15808 ****        -6.7500  -0.5000  21.0000 Du        
  15809 ****        -6.7500  -0.5000  21.2500 Du        
  15810 ****        -6.7500  -0.5000  21.5000 Du        
  15811 ****        -6.7500  -0.5000  21.7500 Du        
  15812 ****        -6.7500  -0.5000  22.0000 Du        
  15813 ****        -6.7500  -0.5000  22.2500 Du        
  15814 ****        -6.7500  -0.2500  20.5000 Du        
  15815 ****        -6.7500  -0.2500  20.7500 Du        
  15816 ****        -6.7500  -0.2500  21.0000 Du        
  15817 ****        -6.7500  -0.2500  21.2500 Du        
  15818 ****        -6.7500  -0.2500  21.5000 Du        
  15819 ****        -6.7500  -0.2500  21.7500 Du        
  15820 ****        -6.7500  -0.2500  22.0000 Du        
  15821 ****        -6.7500   0.0000  20.5000 Du        
  15822 ****        -6.7500   0.0000  20.7500 Du        
  15823 ****        -6.7500   0.0000  21.0000 Du        
  15824 ****        -6.7500   0.0000  21.2500 Du        
  15825 ****        -6.7500   0.0000  21.5000 Du        
  15826 ****        -6.7500   0.0000  21.7500 Du        
  15827 ****        -6.7500   0.0000  22.0000 Du        
  15828 ****        -6.7500   0.2500  20.5000 Du        
  15829 ****        -6.7500   0.2500  20.7500 Du        
  15830 ****        -6.7500   0.2500  21.0000 Du        
  15831 ****        -6.7500   0.2500  21.2500 Du        
  15832 ****        -6.7500   0.5000  20.5000 Du        
  15833 ****        -6.7500   0.5000  20.7500 Du        
  15834 ****        -6.7500   0.5000  21.0000 Du        
  15835 ****        -6.7500   5.5000  10.0000 Du        
  15836 ****        -6.7500   5.7500  10.0000 Du        
  15837 ****        -6.7500   5.7500  10.2500 Du        
  15838 ****        -6.7500   5.7500  10.5000 Du        
  15839 ****        -6.7500   6.0000  10.0000 Du        
  15840 ****        -6.7500   6.0000  10.2500 Du        
  15841 ****        -6.7500   6.0000  10.5000 Du        
  15842 ****        -6.7500   6.2500  10.0000 Du        
  15843 ****        -6.7500   6.2500  10.2500 Du        
  15844 ****        -6.7500   6.2500  10.5000 Du        
  15845 ****        -6.7500   6.5000  10.0000 Du        
  15846 ****        -6.7500   6.5000  10.2500 Du        
  15847 ****        -6.7500   6.5000  10.5000 Du        
  15848 ****        -6.7500   6.7500  10.0000 Du        
  15849 ****        -6.7500   6.7500  10.2500 Du        
  15850 ****        -6.7500   7.0000  10.0000 Du        
  15851 ****        -6.7500  11.0000  28.5000 Du        
  15852 ****        -6.7500  11.0000  28.7500 Du        
  15853 ****        -6.7500  11.0000  29.0000 Du        
  15854 ****        -6.7500  11.0000  29.2500 Du        
  15855 ****        -6.7500  11.2500  28.0000 Du        
  15856 ****        -6.7500  11.2500  28.2500 Du        
  15857 ****        -6.7500  11.2500  28.5000 Du        
  15858 ****        -6.7500  11.2500  28.7500 Du        
  15859 ****        -6.7500  11.2500  29.0000 Du        
  15860 ****        -6.7500  11.2500  29.2500 Du        
  15861 ****        -6.7500  11.5000  27.5000 Du        
  15862 ****        -6.7500  11.5000  27.7500 Du        
  15863 ****        -6.7500  11.5000  28.0000 Du        
  15864 ****        -6.7500  11.5000  28.2500 Du        
  15865 ****        -6.7500  11.5000  28.5000 Du        
  15866 ****        -6.7500  11.5000  28.7500 Du        
  15867 ****        -6.7500  11.5000  29.0000 Du        
  15868 ****        -6.7500  11.5000  29.2500 Du        
  15869 ****        -6.7500  11.7500  27.2500 Du        
  15870 ****        -6.7500  11.7500  27.5000 Du        
  15871 ****        -6.7500  11.7500  27.7500 Du        
  15872 ****        -6.7500  11.7500  28.0000 Du        
  15873 ****        -6.7500  11.7500  28.2500 Du        
  15874 ****        -6.7500  11.7500  28.5000 Du        
  15875 ****        -6.7500  11.7500  28.7500 Du        
  15876 ****        -6.7500  11.7500  29.0000 Du        
  15877 ****        -6.7500  11.7500  29.2500 Du        
  15878 ****        -6.7500  11.7500  29.5000 Du        
  15879 ****        -6.7500  12.0000  27.2500 Du        
  15880 ****        -6.7500  12.0000  27.5000 Du        
  15881 ****        -6.7500  12.0000  27.7500 Du        
  15882 ****        -6.7500  12.0000  28.0000 Du        
  15883 ****        -6.7500  12.0000  28.2500 Du        
  15884 ****        -6.7500  12.0000  28.5000 Du        
  15885 ****        -6.7500  12.0000  28.7500 Du        
  15886 ****        -6.7500  12.0000  29.0000 Du        
  15887 ****        -6.7500  12.0000  29.2500 Du        
  15888 ****        -6.7500  12.0000  29.5000 Du        
  15889 ****        -6.7500  12.0000  29.7500 Du        
  15890 ****        -6.7500  12.0000  30.0000 Du        
  15891 ****        -6.7500  12.2500  27.2500 Du        
  15892 ****        -6.7500  12.2500  27.5000 Du        
  15893 ****        -6.7500  12.2500  27.7500 Du        
  15894 ****        -6.7500  12.2500  28.0000 Du        
  15895 ****        -6.7500  12.2500  28.2500 Du        
  15896 ****        -6.7500  12.2500  28.5000 Du        
  15897 ****        -6.7500  12.2500  28.7500 Du        
  15898 ****        -6.7500  12.2500  29.0000 Du        
  15899 ****        -6.7500  12.2500  29.2500 Du        
  15900 ****        -6.7500  12.2500  29.5000 Du        
  15901 ****        -6.7500  12.2500  29.7500 Du        
  15902 ****        -6.7500  12.2500  30.0000 Du        
  15903 ****        -6.7500  12.5000  27.2500 Du        
  15904 ****        -6.7500  12.5000  27.5000 Du        
  15905 ****        -6.7500  12.5000  27.7500 Du        
  15906 ****        -6.7500  12.5000  28.0000 Du        
  15907 ****        -6.7500  12.5000  28.2500 Du        
  15908 ****        -6.7500  12.5000  28.5000 Du        
  15909 ****        -6.7500  12.5000  28.7500 Du        
  15910 ****        -6.7500  12.5000  29.0000 Du        
  15911 ****        -6.7500  12.5000  29.2500 Du        
  15912 ****        -6.7500  12.5000  29.5000 Du        
  15913 ****        -6.7500  12.5000  29.7500 Du        
  15914 ****        -6.7500  12.5000  30.0000 Du        
  15915 ****        -6.7500  12.5000  30.2500 Du        
  15916 ****        -6.7500  12.7500  27.2500 Du        
  15917 ****        -6.7500  12.7500  27.5000 Du        
  15918 ****        -6.7500  12.7500  27.7500 Du        
  15919 ****        -6.7500  12.7500  28.0000 Du        
  15920 ****        -6.7500  12.7500  28.2500 Du        
  15921 ****        -6.7500  12.7500  28.5000 Du        
  15922 ****        -6.7500  12.7500  28.7500 Du        
  15923 ****        -6.7500  12.7500  29.0000 Du        
  15924 ****        -6.7500  12.7500  29.2500 Du        
  15925 ****        -6.7500  12.7500  29.5000 Du        
  15926 ****        -6.7500  12.7500  29.7500 Du        
  15927 ****        -6.7500  12.7500  30.0000 Du        
  15928 ****        -6.7500  12.7500  30.2500 Du        
  15929 ****        -6.7500  13.0000  27.5000 Du        
  15930 ****        -6.7500  13.0000  27.7500 Du        
  15931 ****        -6.7500  13.0000  28.0000 Du        
  15932 ****        -6.7500  13.0000  28.2500 Du        
  15933 ****        -6.7500  13.0000  28.5000 Du        
  15934 ****        -6.7500  13.0000  28.7500 Du        
  15935 ****        -6.7500  13.0000  29.0000 Du        
  15936 ****        -6.7500  13.0000  29.2500 Du        
  15937 ****        -6.7500  13.0000  29.5000 Du        
  15938 ****        -6.7500  13.0000  29.7500 Du        
  15939 ****        -6.7500  13.0000  30.0000 Du        
  15940 ****        -6.7500  13.0000  30.2500 Du        
  15941 ****        -6.7500  13.0000  30.5000 Du        
  15942 ****        -6.7500  13.0000  30.7500 Du        
  15943 ****        -6.7500  13.0000  31.0000 Du        
  15944 ****        -6.7500  13.2500  27.7500 Du        
  15945 ****        -6.7500  13.2500  28.0000 Du        
  15946 ****        -6.7500  13.2500  28.2500 Du        
  15947 ****        -6.7500  13.2500  28.5000 Du        
  15948 ****        -6.7500  13.2500  28.7500 Du        
  15949 ****        -6.7500  13.2500  29.0000 Du        
  15950 ****        -6.7500  13.2500  29.2500 Du        
  15951 ****        -6.7500  13.2500  29.5000 Du        
  15952 ****        -6.7500  13.2500  29.7500 Du        
  15953 ****        -6.7500  13.2500  30.0000 Du        
  15954 ****        -6.7500  13.2500  30.2500 Du        
  15955 ****        -6.7500  13.2500  30.5000 Du        
  15956 ****        -6.7500  13.2500  30.7500 Du        
  15957 ****        -6.7500  13.2500  31.0000 Du        
  15958 ****        -6.7500  13.2500  31.2500 Du        
  15959 ****        -6.7500  13.5000  28.0000 Du        
  15960 ****        -6.7500  13.5000  28.2500 Du        
  15961 ****        -6.7500  13.5000  28.5000 Du        
  15962 ****        -6.7500  13.5000  28.7500 Du        
  15963 ****        -6.7500  13.5000  29.0000 Du        
  15964 ****        -6.7500  13.5000  29.2500 Du        
  15965 ****        -6.7500  13.5000  29.5000 Du        
  15966 ****        -6.7500  13.5000  29.7500 Du        
  15967 ****        -6.7500  13.5000  30.0000 Du        
  15968 ****        -6.7500  13.5000  30.2500 Du        
  15969 ****        -6.7500  13.5000  30.5000 Du        
  15970 ****        -6.7500  13.5000  30.7500 Du        
  15971 ****        -6.7500  13.5000  31.0000 Du        
  15972 ****        -6.7500  13.5000  31.2500 Du        
  15973 ****        -6.7500  13.5000  32.0000 Du        
  15974 ****        -6.7500  13.5000  32.2500 Du        
  15975 ****        -6.7500  13.7500  28.2500 Du        
  15976 ****        -6.7500  13.7500  28.5000 Du        
  15977 ****        -6.7500  13.7500  28.7500 Du        
  15978 ****        -6.7500  13.7500  29.0000 Du        
  15979 ****        -6.7500  13.7500  29.2500 Du        
  15980 ****        -6.7500  13.7500  29.5000 Du        
  15981 ****        -6.7500  13.7500  29.7500 Du        
  15982 ****        -6.7500  13.7500  30.0000 Du        
  15983 ****        -6.7500  13.7500  30.2500 Du        
  15984 ****        -6.7500  13.7500  30.5000 Du        
  15985 ****        -6.7500  13.7500  30.7500 Du        
  15986 ****        -6.7500  13.7500  31.0000 Du        
  15987 ****        -6.7500  13.7500  31.2500 Du        
  15988 ****        -6.7500  13.7500  31.7500 Du        
  15989 ****        -6.7500  13.7500  32.0000 Du        
  15990 ****        -6.7500  13.7500  32.2500 Du        
  15991 ****        -6.7500  13.7500  32.5000 Du        
  15992 ****        -6.7500  13.7500  32.7500 Du        
  15993 ****        -6.7500  13.7500  33.0000 Du        
  15994 ****        -6.7500  14.0000  28.5000 Du        
  15995 ****        -6.7500  14.0000  28.7500 Du        
  15996 ****        -6.7500  14.0000  29.0000 Du        
  15997 ****        -6.7500  14.0000  29.2500 Du        
  15998 ****        -6.7500  14.0000  29.5000 Du        
  15999 ****        -6.7500  14.0000  29.7500 Du        
  16000 ****        -6.7500  14.0000  30.0000 Du        
  16001 ****        -6.7500  14.0000  30.2500 Du        
  16002 ****        -6.7500  14.0000  30.5000 Du        
  16003 ****        -6.7500  14.0000  30.7500 Du        
  16004 ****        -6.7500  14.0000  31.0000 Du        
  16005 ****        -6.7500  14.0000  32.5000 Du        
  16006 ****        -6.7500  14.0000  32.7500 Du        
  16007 ****        -6.7500  14.0000  33.0000 Du        
  16008 ****        -6.7500  14.0000  33.2500 Du        
  16009 ****        -6.7500  14.2500  28.5000 Du        
  16010 ****        -6.7500  14.2500  28.7500 Du        
  16011 ****        -6.7500  14.2500  29.0000 Du        
  16012 ****        -6.7500  14.2500  29.2500 Du        
  16013 ****        -6.7500  14.2500  29.5000 Du        
  16014 ****        -6.7500  14.2500  29.7500 Du        
  16015 ****        -6.7500  14.2500  30.0000 Du        
  16016 ****        -6.7500  14.2500  30.2500 Du        
  16017 ****        -6.7500  14.2500  33.0000 Du        
  16018 ****        -6.7500  14.2500  33.2500 Du        
  16019 ****        -6.7500  14.2500  33.5000 Du        
  16020 ****        -6.7500  14.2500  33.7500 Du        
  16021 ****        -6.7500  14.2500  34.0000 Du        
  16022 ****        -6.7500  14.5000  28.5000 Du        
  16023 ****        -6.7500  14.5000  28.7500 Du        
  16024 ****        -6.7500  14.5000  29.0000 Du        
  16025 ****        -6.7500  14.5000  29.2500 Du        
  16026 ****        -6.7500  14.5000  29.5000 Du        
  16027 ****        -6.7500  14.5000  29.7500 Du        
  16028 ****        -6.7500  14.5000  30.0000 Du        
  16029 ****        -6.7500  14.5000  30.2500 Du        
  16030 ****        -6.7500  14.5000  33.5000 Du        
  16031 ****        -6.7500  14.5000  33.7500 Du        
  16032 ****        -6.7500  14.5000  34.0000 Du        
  16033 ****        -6.7500  14.5000  34.2500 Du        
  16034 ****        -6.7500  14.5000  34.5000 Du        
  16035 ****        -6.7500  14.5000  34.7500 Du        
  16036 ****        -6.7500  14.5000  35.0000 Du        
  16037 ****        -6.7500  14.7500  28.7500 Du        
  16038 ****        -6.7500  14.7500  29.0000 Du        
  16039 ****        -6.7500  14.7500  29.2500 Du        
  16040 ****        -6.7500  14.7500  29.5000 Du        
  16041 ****        -6.7500  14.7500  29.7500 Du        
  16042 ****        -6.7500  14.7500  33.7500 Du        
  16043 ****        -6.7500  14.7500  34.0000 Du        
  16044 ****        -6.7500  14.7500  34.2500 Du        
  16045 ****        -6.7500  14.7500  34.5000 Du        
  16046 ****        -6.7500  14.7500  34.7500 Du        
  16047 ****        -6.7500  14.7500  35.0000 Du        
  16048 ****        -6.7500  14.7500  35.2500 Du        
  16049 ****        -6.7500  15.0000  28.7500 Du        
  16050 ****        -6.7500  15.0000  29.0000 Du        
  16051 ****        -6.7500  15.0000  29.2500 Du        
  16052 ****        -6.7500  15.0000  29.5000 Du        
  16053 ****        -6.7500  15.0000  34.0000 Du        
  16054 ****        -6.7500  15.0000  34.2500 Du        
  16055 ****        -6.7500  15.0000  34.5000 Du        
  16056 ****        -6.7500  15.0000  34.7500 Du        
  16057 ****        -6.7500  15.0000  35.0000 Du        
  16058 ****        -6.7500  15.0000  35.2500 Du        
  16059 ****        -6.7500  15.2500  28.7500 Du        
  16060 ****        -6.7500  15.2500  29.0000 Du        
  16061 ****        -6.7500  15.2500  29.2500 Du        
  16062 ****        -6.7500  15.2500  34.2500 Du        
  16063 ****        -6.7500  15.2500  34.5000 Du        
  16064 ****        -6.7500  15.2500  34.7500 Du        
  16065 ****        -6.7500  15.2500  35.0000 Du        
  16066 ****        -6.7500  15.2500  35.2500 Du        
  16067 ****        -6.7500  15.5000  34.7500 Du        
  16068 ****        -6.7500  15.5000  35.0000 Du        
  16069 ****        -6.5000 -23.7500  18.7500 Du        
  16070 ****        -6.5000 -23.5000  18.7500 Du        
  16071 ****        -6.5000 -23.2500  18.5000 Du        
  16072 ****        -6.5000 -23.2500  18.7500 Du        
  16073 ****        -6.5000 -23.0000  18.5000 Du        
  16074 ****        -6.5000 -23.0000  18.7500 Du        
  16075 ****        -6.5000 -22.7500  18.5000 Du        
  16076 ****        -6.5000 -22.7500  18.7500 Du        
  16077 ****        -6.5000 -22.5000  18.5000 Du        
  16078 ****        -6.5000 -22.5000  18.7500 Du        
  16079 ****        -6.5000 -22.5000  19.0000 Du        
  16080 ****        -6.5000 -22.2500  18.5000 Du        
  16081 ****        -6.5000 -22.2500  18.7500 Du        
  16082 ****        -6.5000 -22.2500  19.0000 Du        
  16083 ****        -6.5000 -22.0000  18.7500 Du        
  16084 ****        -6.5000 -19.5000  19.2500 Du        
  16085 ****        -6.5000 -19.5000  19.5000 Du        
  16086 ****        -6.5000 -19.2500  19.2500 Du        
  16087 ****        -6.5000 -19.2500  19.5000 Du        
  16088 ****        -6.5000 -19.2500  19.7500 Du        
  16089 ****        -6.5000 -19.0000  19.2500 Du        
  16090 ****        -6.5000 -19.0000  19.5000 Du        
  16091 ****        -6.5000 -19.0000  19.7500 Du        
  16092 ****        -6.5000 -18.7500  19.2500 Du        
  16093 ****        -6.5000 -18.7500  19.5000 Du        
  16094 ****        -6.5000 -18.7500  19.7500 Du        
  16095 ****        -6.5000 -18.5000  19.2500 Du        
  16096 ****        -6.5000 -18.5000  19.5000 Du        
  16097 ****        -6.5000 -18.5000  19.7500 Du        
  16098 ****        -6.5000 -18.2500  19.0000 Du        
  16099 ****        -6.5000 -18.2500  19.2500 Du        
  16100 ****        -6.5000 -18.2500  19.5000 Du        
  16101 ****        -6.5000 -18.2500  19.7500 Du        
  16102 ****        -6.5000 -18.2500  20.0000 Du        
  16103 ****        -6.5000 -18.0000  19.0000 Du        
  16104 ****        -6.5000 -18.0000  19.2500 Du        
  16105 ****        -6.5000 -18.0000  19.5000 Du        
  16106 ****        -6.5000 -18.0000  19.7500 Du        
  16107 ****        -6.5000 -18.0000  20.0000 Du        
  16108 ****        -6.5000 -17.7500  19.0000 Du        
  16109 ****        -6.5000 -17.7500  19.2500 Du        
  16110 ****        -6.5000 -17.7500  19.5000 Du        
  16111 ****        -6.5000 -17.7500  19.7500 Du        
  16112 ****        -6.5000 -17.7500  20.0000 Du        
  16113 ****        -6.5000 -17.7500  20.2500 Du        
  16114 ****        -6.5000 -17.5000  19.0000 Du        
  16115 ****        -6.5000 -17.5000  19.2500 Du        
  16116 ****        -6.5000 -17.5000  19.5000 Du        
  16117 ****        -6.5000 -17.5000  19.7500 Du        
  16118 ****        -6.5000 -17.5000  20.0000 Du        
  16119 ****        -6.5000 -17.5000  20.2500 Du        
  16120 ****        -6.5000 -17.2500  19.0000 Du        
  16121 ****        -6.5000 -17.2500  19.2500 Du        
  16122 ****        -6.5000 -17.2500  19.5000 Du        
  16123 ****        -6.5000 -17.2500  19.7500 Du        
  16124 ****        -6.5000 -17.2500  20.0000 Du        
  16125 ****        -6.5000 -17.2500  20.2500 Du        
  16126 ****        -6.5000 -17.0000  18.7500 Du        
  16127 ****        -6.5000 -17.0000  19.0000 Du        
  16128 ****        -6.5000 -17.0000  19.2500 Du        
  16129 ****        -6.5000 -17.0000  19.5000 Du        
  16130 ****        -6.5000 -17.0000  19.7500 Du        
  16131 ****        -6.5000 -17.0000  20.0000 Du        
  16132 ****        -6.5000 -17.0000  20.2500 Du        
  16133 ****        -6.5000 -16.7500  18.7500 Du        
  16134 ****        -6.5000 -16.7500  19.0000 Du        
  16135 ****        -6.5000 -16.7500  19.2500 Du        
  16136 ****        -6.5000 -16.7500  19.5000 Du        
  16137 ****        -6.5000 -16.7500  19.7500 Du        
  16138 ****        -6.5000 -16.7500  20.0000 Du        
  16139 ****        -6.5000 -16.7500  20.2500 Du        
  16140 ****        -6.5000 -16.5000  18.5000 Du        
  16141 ****        -6.5000 -16.5000  18.7500 Du        
  16142 ****        -6.5000 -16.5000  19.0000 Du        
  16143 ****        -6.5000 -16.5000  19.2500 Du        
  16144 ****        -6.5000 -16.5000  19.5000 Du        
  16145 ****        -6.5000 -16.5000  19.7500 Du        
  16146 ****        -6.5000 -16.5000  20.0000 Du        
  16147 ****        -6.5000 -16.5000  20.2500 Du        
  16148 ****        -6.5000 -16.2500  18.2500 Du        
  16149 ****        -6.5000 -16.2500  18.5000 Du        
  16150 ****        -6.5000 -16.2500  18.7500 Du        
  16151 ****        -6.5000 -16.2500  19.0000 Du        
  16152 ****        -6.5000 -16.2500  19.2500 Du        
  16153 ****        -6.5000 -16.2500  19.5000 Du        
  16154 ****        -6.5000 -16.2500  19.7500 Du        
  16155 ****        -6.5000 -16.2500  20.0000 Du        
  16156 ****        -6.5000 -16.2500  20.2500 Du        
  16157 ****        -6.5000 -16.0000  18.2500 Du        
  16158 ****        -6.5000 -16.0000  18.5000 Du        
  16159 ****        -6.5000 -16.0000  18.7500 Du        
  16160 ****        -6.5000 -16.0000  19.0000 Du        
  16161 ****        -6.5000 -16.0000  19.2500 Du        
  16162 ****        -6.5000 -16.0000  19.5000 Du        
  16163 ****        -6.5000 -16.0000  19.7500 Du        
  16164 ****        -6.5000 -16.0000  20.0000 Du        
  16165 ****        -6.5000 -16.0000  20.2500 Du        
  16166 ****        -6.5000 -15.7500  18.0000 Du        
  16167 ****        -6.5000 -15.7500  18.2500 Du        
  16168 ****        -6.5000 -15.7500  18.5000 Du        
  16169 ****        -6.5000 -15.7500  18.7500 Du        
  16170 ****        -6.5000 -15.7500  19.0000 Du        
  16171 ****        -6.5000 -15.7500  19.2500 Du        
  16172 ****        -6.5000 -15.7500  19.5000 Du        
  16173 ****        -6.5000 -15.7500  19.7500 Du        
  16174 ****        -6.5000 -15.7500  20.0000 Du        
  16175 ****        -6.5000 -15.7500  20.2500 Du        
  16176 ****        -6.5000 -15.5000  18.2500 Du        
  16177 ****        -6.5000 -15.5000  18.5000 Du        
  16178 ****        -6.5000 -15.5000  18.7500 Du        
  16179 ****        -6.5000 -15.5000  19.0000 Du        
  16180 ****        -6.5000 -15.5000  19.2500 Du        
  16181 ****        -6.5000 -15.5000  19.5000 Du        
  16182 ****        -6.5000 -15.5000  19.7500 Du        
  16183 ****        -6.5000 -15.2500  19.2500 Du        
  16184 ****        -6.5000 -15.2500  19.7500 Du        
  16185 ****        -6.5000  -1.2500  21.0000 Du        
  16186 ****        -6.5000  -1.2500  21.2500 Du        
  16187 ****        -6.5000  -1.0000  20.7500 Du        
  16188 ****        -6.5000  -1.0000  21.0000 Du        
  16189 ****        -6.5000  -1.0000  21.2500 Du        
  16190 ****        -6.5000  -1.0000  21.5000 Du        
  16191 ****        -6.5000  -1.0000  21.7500 Du        
  16192 ****        -6.5000  -1.0000  22.0000 Du        
  16193 ****        -6.5000  -0.7500  20.5000 Du        
  16194 ****        -6.5000  -0.7500  20.7500 Du        
  16195 ****        -6.5000  -0.7500  21.0000 Du        
  16196 ****        -6.5000  -0.7500  21.2500 Du        
  16197 ****        -6.5000  -0.7500  21.5000 Du        
  16198 ****        -6.5000  -0.7500  21.7500 Du        
  16199 ****        -6.5000  -0.7500  22.0000 Du        
  16200 ****        -6.5000  -0.5000  20.2500 Du        
  16201 ****        -6.5000  -0.5000  20.5000 Du        
  16202 ****        -6.5000  -0.5000  20.7500 Du        
  16203 ****        -6.5000  -0.5000  21.0000 Du        
  16204 ****        -6.5000  -0.5000  21.2500 Du        
  16205 ****        -6.5000  -0.5000  21.5000 Du        
  16206 ****        -6.5000  -0.5000  21.7500 Du        
  16207 ****        -6.5000  -0.2500  20.2500 Du        
  16208 ****        -6.5000  -0.2500  20.5000 Du        
  16209 ****        -6.5000  -0.2500  20.7500 Du        
  16210 ****        -6.5000  -0.2500  21.0000 Du        
  16211 ****        -6.5000  -0.2500  21.2500 Du        
  16212 ****        -6.5000  -0.2500  21.5000 Du        
  16213 ****        -6.5000  -0.2500  21.7500 Du        
  16214 ****        -6.5000   0.0000  20.2500 Du        
  16215 ****        -6.5000   0.0000  20.5000 Du        
  16216 ****        -6.5000   0.0000  20.7500 Du        
  16217 ****        -6.5000   0.0000  21.0000 Du        
  16218 ****        -6.5000   0.0000  21.2500 Du        
  16219 ****        -6.5000   0.2500  20.2500 Du        
  16220 ****        -6.5000   0.2500  20.5000 Du        
  16221 ****        -6.5000   0.2500  20.7500 Du        
  16222 ****        -6.5000   0.2500  21.0000 Du        
  16223 ****        -6.5000   5.2500  10.0000 Du        
  16224 ****        -6.5000   5.5000  10.0000 Du        
  16225 ****        -6.5000   5.5000  10.2500 Du        
  16226 ****        -6.5000   5.7500  10.0000 Du        
  16227 ****        -6.5000   5.7500  10.2500 Du        
  16228 ****        -6.5000   5.7500  10.5000 Du        
  16229 ****        -6.5000   6.0000  10.0000 Du        
  16230 ****        -6.5000   6.0000  10.2500 Du        
  16231 ****        -6.5000   6.0000  10.5000 Du        
  16232 ****        -6.5000   6.2500  10.0000 Du        
  16233 ****        -6.5000   6.2500  10.2500 Du        
  16234 ****        -6.5000   6.2500  10.5000 Du        
  16235 ****        -6.5000   6.2500  10.7500 Du        
  16236 ****        -6.5000   6.5000  10.0000 Du        
  16237 ****        -6.5000   6.5000  10.2500 Du        
  16238 ****        -6.5000   6.5000  10.5000 Du        
  16239 ****        -6.5000   6.7500  10.0000 Du        
  16240 ****        -6.5000   6.7500  10.2500 Du        
  16241 ****        -6.5000   6.7500  10.5000 Du        
  16242 ****        -6.5000   7.0000  10.0000 Du        
  16243 ****        -6.5000   7.0000  10.2500 Du        
  16244 ****        -6.5000   7.0000  10.5000 Du        
  16245 ****        -6.5000  10.7500  28.7500 Du        
  16246 ****        -6.5000  10.7500  29.0000 Du        
  16247 ****        -6.5000  11.0000  28.0000 Du        
  16248 ****        -6.5000  11.0000  28.2500 Du        
  16249 ****        -6.5000  11.0000  28.5000 Du        
  16250 ****        -6.5000  11.0000  28.7500 Du        
  16251 ****        -6.5000  11.0000  29.0000 Du        
  16252 ****        -6.5000  11.0000  29.2500 Du        
  16253 ****        -6.5000  11.2500  27.5000 Du        
  16254 ****        -6.5000  11.2500  27.7500 Du        
  16255 ****        -6.5000  11.2500  28.0000 Du        
  16256 ****        -6.5000  11.2500  28.2500 Du        
  16257 ****        -6.5000  11.2500  28.5000 Du        
  16258 ****        -6.5000  11.2500  28.7500 Du        
  16259 ****        -6.5000  11.2500  29.0000 Du        
  16260 ****        -6.5000  11.2500  29.2500 Du        
  16261 ****        -6.5000  11.5000  27.2500 Du        
  16262 ****        -6.5000  11.5000  27.5000 Du        
  16263 ****        -6.5000  11.5000  27.7500 Du        
  16264 ****        -6.5000  11.5000  28.0000 Du        
  16265 ****        -6.5000  11.5000  28.2500 Du        
  16266 ****        -6.5000  11.5000  28.5000 Du        
  16267 ****        -6.5000  11.5000  28.7500 Du        
  16268 ****        -6.5000  11.5000  29.0000 Du        
  16269 ****        -6.5000  11.5000  29.2500 Du        
  16270 ****        -6.5000  11.7500  27.2500 Du        
  16271 ****        -6.5000  11.7500  27.5000 Du        
  16272 ****        -6.5000  11.7500  27.7500 Du        
  16273 ****        -6.5000  11.7500  28.0000 Du        
  16274 ****        -6.5000  11.7500  28.2500 Du        
  16275 ****        -6.5000  11.7500  28.5000 Du        
  16276 ****        -6.5000  11.7500  28.7500 Du        
  16277 ****        -6.5000  11.7500  29.0000 Du        
  16278 ****        -6.5000  11.7500  29.2500 Du        
  16279 ****        -6.5000  11.7500  29.5000 Du        
  16280 ****        -6.5000  11.7500  29.7500 Du        
  16281 ****        -6.5000  12.0000  27.2500 Du        
  16282 ****        -6.5000  12.0000  27.5000 Du        
  16283 ****        -6.5000  12.0000  27.7500 Du        
  16284 ****        -6.5000  12.0000  28.0000 Du        
  16285 ****        -6.5000  12.0000  28.2500 Du        
  16286 ****        -6.5000  12.0000  28.5000 Du        
  16287 ****        -6.5000  12.0000  28.7500 Du        
  16288 ****        -6.5000  12.0000  29.0000 Du        
  16289 ****        -6.5000  12.0000  29.2500 Du        
  16290 ****        -6.5000  12.0000  29.5000 Du        
  16291 ****        -6.5000  12.0000  29.7500 Du        
  16292 ****        -6.5000  12.0000  30.0000 Du        
  16293 ****        -6.5000  12.2500  27.2500 Du        
  16294 ****        -6.5000  12.2500  27.5000 Du        
  16295 ****        -6.5000  12.2500  27.7500 Du        
  16296 ****        -6.5000  12.2500  28.0000 Du        
  16297 ****        -6.5000  12.2500  28.2500 Du        
  16298 ****        -6.5000  12.2500  28.5000 Du        
  16299 ****        -6.5000  12.2500  28.7500 Du        
  16300 ****        -6.5000  12.2500  29.0000 Du        
  16301 ****        -6.5000  12.2500  29.2500 Du        
  16302 ****        -6.5000  12.2500  29.5000 Du        
  16303 ****        -6.5000  12.2500  29.7500 Du        
  16304 ****        -6.5000  12.5000  27.2500 Du        
  16305 ****        -6.5000  12.5000  27.5000 Du        
  16306 ****        -6.5000  12.5000  27.7500 Du        
  16307 ****        -6.5000  12.5000  28.0000 Du        
  16308 ****        -6.5000  12.5000  28.2500 Du        
  16309 ****        -6.5000  12.5000  28.5000 Du        
  16310 ****        -6.5000  12.5000  28.7500 Du        
  16311 ****        -6.5000  12.5000  29.0000 Du        
  16312 ****        -6.5000  12.5000  29.2500 Du        
  16313 ****        -6.5000  12.5000  29.5000 Du        
  16314 ****        -6.5000  12.5000  29.7500 Du        
  16315 ****        -6.5000  12.5000  30.0000 Du        
  16316 ****        -6.5000  12.5000  30.2500 Du        
  16317 ****        -6.5000  12.5000  30.5000 Du        
  16318 ****        -6.5000  12.7500  27.5000 Du        
  16319 ****        -6.5000  12.7500  27.7500 Du        
  16320 ****        -6.5000  12.7500  28.0000 Du        
  16321 ****        -6.5000  12.7500  28.2500 Du        
  16322 ****        -6.5000  12.7500  28.5000 Du        
  16323 ****        -6.5000  12.7500  28.7500 Du        
  16324 ****        -6.5000  12.7500  29.0000 Du        
  16325 ****        -6.5000  12.7500  29.2500 Du        
  16326 ****        -6.5000  12.7500  29.5000 Du        
  16327 ****        -6.5000  12.7500  29.7500 Du        
  16328 ****        -6.5000  12.7500  30.0000 Du        
  16329 ****        -6.5000  12.7500  30.2500 Du        
  16330 ****        -6.5000  12.7500  30.5000 Du        
  16331 ****        -6.5000  12.7500  30.7500 Du        
  16332 ****        -6.5000  13.0000  27.7500 Du        
  16333 ****        -6.5000  13.0000  28.0000 Du        
  16334 ****        -6.5000  13.0000  28.2500 Du        
  16335 ****        -6.5000  13.0000  28.5000 Du        
  16336 ****        -6.5000  13.0000  28.7500 Du        
  16337 ****        -6.5000  13.0000  29.0000 Du        
  16338 ****        -6.5000  13.0000  29.2500 Du        
  16339 ****        -6.5000  13.0000  29.5000 Du        
  16340 ****        -6.5000  13.0000  29.7500 Du        
  16341 ****        -6.5000  13.0000  30.0000 Du        
  16342 ****        -6.5000  13.0000  30.2500 Du        
  16343 ****        -6.5000  13.0000  30.5000 Du        
  16344 ****        -6.5000  13.0000  30.7500 Du        
  16345 ****        -6.5000  13.0000  31.0000 Du        
  16346 ****        -6.5000  13.2500  28.0000 Du        
  16347 ****        -6.5000  13.2500  28.2500 Du        
  16348 ****        -6.5000  13.2500  28.5000 Du        
  16349 ****        -6.5000  13.2500  28.7500 Du        
  16350 ****        -6.5000  13.2500  29.0000 Du        
  16351 ****        -6.5000  13.2500  29.2500 Du        
  16352 ****        -6.5000  13.2500  29.5000 Du        
  16353 ****        -6.5000  13.2500  29.7500 Du        
  16354 ****        -6.5000  13.2500  30.0000 Du        
  16355 ****        -6.5000  13.2500  30.2500 Du        
  16356 ****        -6.5000  13.2500  30.5000 Du        
  16357 ****        -6.5000  13.2500  30.7500 Du        
  16358 ****        -6.5000  13.2500  31.0000 Du        
  16359 ****        -6.5000  13.2500  31.2500 Du        
  16360 ****        -6.5000  13.5000  28.2500 Du        
  16361 ****        -6.5000  13.5000  28.5000 Du        
  16362 ****        -6.5000  13.5000  28.7500 Du        
  16363 ****        -6.5000  13.5000  29.0000 Du        
  16364 ****        -6.5000  13.5000  29.2500 Du        
  16365 ****        -6.5000  13.5000  29.5000 Du        
  16366 ****        -6.5000  13.5000  29.7500 Du        
  16367 ****        -6.5000  13.5000  30.0000 Du        
  16368 ****        -6.5000  13.5000  30.2500 Du        
  16369 ****        -6.5000  13.5000  30.5000 Du        
  16370 ****        -6.5000  13.5000  30.7500 Du        
  16371 ****        -6.5000  13.5000  31.0000 Du        
  16372 ****        -6.5000  13.5000  31.2500 Du        
  16373 ****        -6.5000  13.5000  31.5000 Du        
  16374 ****        -6.5000  13.5000  31.7500 Du        
  16375 ****        -6.5000  13.5000  32.0000 Du        
  16376 ****        -6.5000  13.5000  32.2500 Du        
  16377 ****        -6.5000  13.7500  28.2500 Du        
  16378 ****        -6.5000  13.7500  28.5000 Du        
  16379 ****        -6.5000  13.7500  28.7500 Du        
  16380 ****        -6.5000  13.7500  29.0000 Du        
  16381 ****        -6.5000  13.7500  29.2500 Du        
  16382 ****        -6.5000  13.7500  29.5000 Du        
  16383 ****        -6.5000  13.7500  29.7500 Du        
  16384 ****        -6.5000  13.7500  30.0000 Du        
  16385 ****        -6.5000  13.7500  30.2500 Du        
  16386 ****        -6.5000  13.7500  30.5000 Du        
  16387 ****        -6.5000  13.7500  30.7500 Du        
  16388 ****        -6.5000  13.7500  31.0000 Du        
  16389 ****        -6.5000  13.7500  31.2500 Du        
  16390 ****        -6.5000  13.7500  31.5000 Du        
  16391 ****        -6.5000  13.7500  31.7500 Du        
  16392 ****        -6.5000  13.7500  32.0000 Du        
  16393 ****        -6.5000  13.7500  32.2500 Du        
  16394 ****        -6.5000  13.7500  32.5000 Du        
  16395 ****        -6.5000  14.0000  28.5000 Du        
  16396 ****        -6.5000  14.0000  28.7500 Du        
  16397 ****        -6.5000  14.0000  29.0000 Du        
  16398 ****        -6.5000  14.0000  29.2500 Du        
  16399 ****        -6.5000  14.0000  29.5000 Du        
  16400 ****        -6.5000  14.0000  29.7500 Du        
  16401 ****        -6.5000  14.0000  30.0000 Du        
  16402 ****        -6.5000  14.0000  30.2500 Du        
  16403 ****        -6.5000  14.0000  30.5000 Du        
  16404 ****        -6.5000  14.0000  30.7500 Du        
  16405 ****        -6.5000  14.0000  31.0000 Du        
  16406 ****        -6.5000  14.0000  31.2500 Du        
  16407 ****        -6.5000  14.0000  31.5000 Du        
  16408 ****        -6.5000  14.0000  31.7500 Du        
  16409 ****        -6.5000  14.0000  32.0000 Du        
  16410 ****        -6.5000  14.0000  32.2500 Du        
  16411 ****        -6.5000  14.0000  32.5000 Du        
  16412 ****        -6.5000  14.0000  32.7500 Du        
  16413 ****        -6.5000  14.2500  28.5000 Du        
  16414 ****        -6.5000  14.2500  28.7500 Du        
  16415 ****        -6.5000  14.2500  29.0000 Du        
  16416 ****        -6.5000  14.2500  29.2500 Du        
  16417 ****        -6.5000  14.2500  29.5000 Du        
  16418 ****        -6.5000  14.2500  29.7500 Du        
  16419 ****        -6.5000  14.2500  30.0000 Du        
  16420 ****        -6.5000  14.2500  30.2500 Du        
  16421 ****        -6.5000  14.2500  30.5000 Du        
  16422 ****        -6.5000  14.2500  30.7500 Du        
  16423 ****        -6.5000  14.2500  31.0000 Du        
  16424 ****        -6.5000  14.2500  31.2500 Du        
  16425 ****        -6.5000  14.2500  32.0000 Du        
  16426 ****        -6.5000  14.2500  32.2500 Du        
  16427 ****        -6.5000  14.2500  32.5000 Du        
  16428 ****        -6.5000  14.2500  32.7500 Du        
  16429 ****        -6.5000  14.2500  33.0000 Du        
  16430 ****        -6.5000  14.2500  33.2500 Du        
  16431 ****        -6.5000  14.5000  28.7500 Du        
  16432 ****        -6.5000  14.5000  29.0000 Du        
  16433 ****        -6.5000  14.5000  29.2500 Du        
  16434 ****        -6.5000  14.5000  29.5000 Du        
  16435 ****        -6.5000  14.5000  29.7500 Du        
  16436 ****        -6.5000  14.5000  30.0000 Du        
  16437 ****        -6.5000  14.5000  30.2500 Du        
  16438 ****        -6.5000  14.5000  30.5000 Du        
  16439 ****        -6.5000  14.5000  33.0000 Du        
  16440 ****        -6.5000  14.5000  33.2500 Du        
  16441 ****        -6.5000  14.5000  33.5000 Du        
  16442 ****        -6.5000  14.5000  33.7500 Du        
  16443 ****        -6.5000  14.5000  34.0000 Du        
  16444 ****        -6.5000  14.5000  34.2500 Du        
  16445 ****        -6.5000  14.5000  34.5000 Du        
  16446 ****        -6.5000  14.5000  34.7500 Du        
  16447 ****        -6.5000  14.7500  28.7500 Du        
  16448 ****        -6.5000  14.7500  29.0000 Du        
  16449 ****        -6.5000  14.7500  29.2500 Du        
  16450 ****        -6.5000  14.7500  29.5000 Du        
  16451 ****        -6.5000  14.7500  29.7500 Du        
  16452 ****        -6.5000  14.7500  30.0000 Du        
  16453 ****        -6.5000  14.7500  33.2500 Du        
  16454 ****        -6.5000  14.7500  33.5000 Du        
  16455 ****        -6.5000  14.7500  33.7500 Du        
  16456 ****        -6.5000  14.7500  34.0000 Du        
  16457 ****        -6.5000  14.7500  34.2500 Du        
  16458 ****        -6.5000  14.7500  34.5000 Du        
  16459 ****        -6.5000  14.7500  34.7500 Du        
  16460 ****        -6.5000  14.7500  35.0000 Du        
  16461 ****        -6.5000  15.0000  28.7500 Du        
  16462 ****        -6.5000  15.0000  29.0000 Du        
  16463 ****        -6.5000  15.0000  29.2500 Du        
  16464 ****        -6.5000  15.0000  29.5000 Du        
  16465 ****        -6.5000  15.0000  29.7500 Du        
  16466 ****        -6.5000  15.0000  33.5000 Du        
  16467 ****        -6.5000  15.0000  33.7500 Du        
  16468 ****        -6.5000  15.0000  34.0000 Du        
  16469 ****        -6.5000  15.0000  34.2500 Du        
  16470 ****        -6.5000  15.0000  34.5000 Du        
  16471 ****        -6.5000  15.0000  34.7500 Du        
  16472 ****        -6.5000  15.0000  35.0000 Du        
  16473 ****        -6.5000  15.0000  35.2500 Du        
  16474 ****        -6.5000  15.2500  28.7500 Du        
  16475 ****        -6.5000  15.2500  29.0000 Du        
  16476 ****        -6.5000  15.2500  29.2500 Du        
  16477 ****        -6.5000  15.2500  29.5000 Du        
  16478 ****        -6.5000  15.2500  33.7500 Du        
  16479 ****        -6.5000  15.2500  34.0000 Du        
  16480 ****        -6.5000  15.2500  34.2500 Du        
  16481 ****        -6.5000  15.2500  34.5000 Du        
  16482 ****        -6.5000  15.2500  34.7500 Du        
  16483 ****        -6.5000  15.2500  35.0000 Du        
  16484 ****        -6.5000  15.2500  35.2500 Du        
  16485 ****        -6.5000  15.5000  29.0000 Du        
  16486 ****        -6.5000  15.5000  34.2500 Du        
  16487 ****        -6.2500 -22.5000  18.7500 Du        
  16488 ****        -6.2500 -22.2500  18.5000 Du        
  16489 ****        -6.2500 -22.2500  18.7500 Du        
  16490 ****        -6.2500 -22.0000  18.5000 Du        
  16491 ****        -6.2500 -22.0000  18.7500 Du        
  16492 ****        -6.2500 -22.0000  19.0000 Du        
  16493 ****        -6.2500 -21.7500  18.5000 Du        
  16494 ****        -6.2500 -21.7500  18.7500 Du        
  16495 ****        -6.2500 -21.7500  19.0000 Du        
  16496 ****        -6.2500 -21.5000  18.7500 Du        
  16497 ****        -6.2500 -21.5000  19.0000 Du        
  16498 ****        -6.2500 -21.2500  18.7500 Du        
  16499 ****        -6.2500 -21.2500  19.0000 Du        
  16500 ****        -6.2500 -21.0000  19.0000 Du        
  16501 ****        -6.2500 -21.0000  19.2500 Du        
  16502 ****        -6.2500 -20.7500  19.0000 Du        
  16503 ****        -6.2500 -20.7500  19.2500 Du        
  16504 ****        -6.2500 -20.5000  19.0000 Du        
  16505 ****        -6.2500 -20.5000  19.2500 Du        
  16506 ****        -6.2500 -20.2500  19.0000 Du        
  16507 ****        -6.2500 -20.2500  19.2500 Du        
  16508 ****        -6.2500 -20.2500  19.5000 Du        
  16509 ****        -6.2500 -20.0000  19.0000 Du        
  16510 ****        -6.2500 -20.0000  19.2500 Du        
  16511 ****        -6.2500 -20.0000  19.5000 Du        
  16512 ****        -6.2500 -19.7500  19.0000 Du        
  16513 ****        -6.2500 -19.7500  19.2500 Du        
  16514 ****        -6.2500 -19.7500  19.5000 Du        
  16515 ****        -6.2500 -19.7500  19.7500 Du        
  16516 ****        -6.2500 -19.5000  19.0000 Du        
  16517 ****        -6.2500 -19.5000  19.2500 Du        
  16518 ****        -6.2500 -19.5000  19.5000 Du        
  16519 ****        -6.2500 -19.5000  19.7500 Du        
  16520 ****        -6.2500 -19.2500  19.0000 Du        
  16521 ****        -6.2500 -19.2500  19.2500 Du        
  16522 ****        -6.2500 -19.2500  19.5000 Du        
  16523 ****        -6.2500 -19.2500  19.7500 Du        
  16524 ****        -6.2500 -19.2500  20.0000 Du        
  16525 ****        -6.2500 -19.0000  19.0000 Du        
  16526 ****        -6.2500 -19.0000  19.2500 Du        
  16527 ****        -6.2500 -19.0000  19.5000 Du        
  16528 ****        -6.2500 -19.0000  19.7500 Du        
  16529 ****        -6.2500 -19.0000  20.0000 Du        
  16530 ****        -6.2500 -19.0000  20.2500 Du        
  16531 ****        -6.2500 -18.7500  19.0000 Du        
  16532 ****        -6.2500 -18.7500  19.2500 Du        
  16533 ****        -6.2500 -18.7500  19.5000 Du        
  16534 ****        -6.2500 -18.7500  19.7500 Du        
  16535 ****        -6.2500 -18.7500  20.0000 Du        
  16536 ****        -6.2500 -18.7500  20.2500 Du        
  16537 ****        -6.2500 -18.5000  18.7500 Du        
  16538 ****        -6.2500 -18.5000  19.0000 Du        
  16539 ****        -6.2500 -18.5000  19.2500 Du        
  16540 ****        -6.2500 -18.5000  19.5000 Du        
  16541 ****        -6.2500 -18.5000  19.7500 Du        
  16542 ****        -6.2500 -18.5000  20.0000 Du        
  16543 ****        -6.2500 -18.5000  20.2500 Du        
  16544 ****        -6.2500 -18.2500  18.7500 Du        
  16545 ****        -6.2500 -18.2500  19.0000 Du        
  16546 ****        -6.2500 -18.2500  19.2500 Du        
  16547 ****        -6.2500 -18.2500  19.5000 Du        
  16548 ****        -6.2500 -18.2500  19.7500 Du        
  16549 ****        -6.2500 -18.2500  20.0000 Du        
  16550 ****        -6.2500 -18.2500  20.2500 Du        
  16551 ****        -6.2500 -18.2500  23.2500 Du        
  16552 ****        -6.2500 -18.0000  18.7500 Du        
  16553 ****        -6.2500 -18.0000  19.0000 Du        
  16554 ****        -6.2500 -18.0000  19.2500 Du        
  16555 ****        -6.2500 -18.0000  19.5000 Du        
  16556 ****        -6.2500 -18.0000  19.7500 Du        
  16557 ****        -6.2500 -18.0000  20.0000 Du        
  16558 ****        -6.2500 -18.0000  20.2500 Du        
  16559 ****        -6.2500 -18.0000  23.0000 Du        
  16560 ****        -6.2500 -18.0000  23.2500 Du        
  16561 ****        -6.2500 -17.7500  18.7500 Du        
  16562 ****        -6.2500 -17.7500  19.0000 Du        
  16563 ****        -6.2500 -17.7500  19.2500 Du        
  16564 ****        -6.2500 -17.7500  19.5000 Du        
  16565 ****        -6.2500 -17.7500  19.7500 Du        
  16566 ****        -6.2500 -17.7500  20.0000 Du        
  16567 ****        -6.2500 -17.7500  20.2500 Du        
  16568 ****        -6.2500 -17.5000  18.7500 Du        
  16569 ****        -6.2500 -17.5000  19.0000 Du        
  16570 ****        -6.2500 -17.5000  19.2500 Du        
  16571 ****        -6.2500 -17.5000  19.5000 Du        
  16572 ****        -6.2500 -17.5000  19.7500 Du        
  16573 ****        -6.2500 -17.5000  20.0000 Du        
  16574 ****        -6.2500 -17.5000  20.2500 Du        
  16575 ****        -6.2500 -17.5000  20.5000 Du        
  16576 ****        -6.2500 -17.2500  18.7500 Du        
  16577 ****        -6.2500 -17.2500  19.0000 Du        
  16578 ****        -6.2500 -17.2500  19.2500 Du        
  16579 ****        -6.2500 -17.2500  19.5000 Du        
  16580 ****        -6.2500 -17.2500  19.7500 Du        
  16581 ****        -6.2500 -17.2500  20.0000 Du        
  16582 ****        -6.2500 -17.2500  20.2500 Du        
  16583 ****        -6.2500 -17.2500  20.5000 Du        
  16584 ****        -6.2500 -17.0000  18.5000 Du        
  16585 ****        -6.2500 -17.0000  18.7500 Du        
  16586 ****        -6.2500 -17.0000  19.0000 Du        
  16587 ****        -6.2500 -17.0000  19.2500 Du        
  16588 ****        -6.2500 -17.0000  19.5000 Du        
  16589 ****        -6.2500 -17.0000  19.7500 Du        
  16590 ****        -6.2500 -17.0000  20.0000 Du        
  16591 ****        -6.2500 -17.0000  20.2500 Du        
  16592 ****        -6.2500 -17.0000  20.5000 Du        
  16593 ****        -6.2500 -16.7500  18.5000 Du        
  16594 ****        -6.2500 -16.7500  18.7500 Du        
  16595 ****        -6.2500 -16.7500  19.0000 Du        
  16596 ****        -6.2500 -16.7500  19.2500 Du        
  16597 ****        -6.2500 -16.7500  19.5000 Du        
  16598 ****        -6.2500 -16.7500  19.7500 Du        
  16599 ****        -6.2500 -16.7500  20.0000 Du        
  16600 ****        -6.2500 -16.7500  20.2500 Du        
  16601 ****        -6.2500 -16.7500  20.5000 Du        
  16602 ****        -6.2500 -16.5000  18.2500 Du        
  16603 ****        -6.2500 -16.5000  18.5000 Du        
  16604 ****        -6.2500 -16.5000  18.7500 Du        
  16605 ****        -6.2500 -16.5000  19.0000 Du        
  16606 ****        -6.2500 -16.5000  19.2500 Du        
  16607 ****        -6.2500 -16.5000  19.5000 Du        
  16608 ****        -6.2500 -16.5000  19.7500 Du        
  16609 ****        -6.2500 -16.5000  20.0000 Du        
  16610 ****        -6.2500 -16.5000  20.2500 Du        
  16611 ****        -6.2500 -16.2500  18.0000 Du        
  16612 ****        -6.2500 -16.2500  18.2500 Du        
  16613 ****        -6.2500 -16.2500  18.5000 Du        
  16614 ****        -6.2500 -16.2500  18.7500 Du        
  16615 ****        -6.2500 -16.2500  19.0000 Du        
  16616 ****        -6.2500 -16.2500  19.2500 Du        
  16617 ****        -6.2500 -16.2500  19.5000 Du        
  16618 ****        -6.2500 -16.2500  19.7500 Du        
  16619 ****        -6.2500 -16.2500  20.0000 Du        
  16620 ****        -6.2500 -16.2500  20.2500 Du        
  16621 ****        -6.2500 -16.0000  17.7500 Du        
  16622 ****        -6.2500 -16.0000  18.0000 Du        
  16623 ****        -6.2500 -16.0000  18.2500 Du        
  16624 ****        -6.2500 -16.0000  18.5000 Du        
  16625 ****        -6.2500 -16.0000  18.7500 Du        
  16626 ****        -6.2500 -16.0000  19.0000 Du        
  16627 ****        -6.2500 -16.0000  19.2500 Du        
  16628 ****        -6.2500 -16.0000  19.5000 Du        
  16629 ****        -6.2500 -16.0000  19.7500 Du        
  16630 ****        -6.2500 -16.0000  20.0000 Du        
  16631 ****        -6.2500 -16.0000  20.2500 Du        
  16632 ****        -6.2500 -15.7500  17.2500 Du        
  16633 ****        -6.2500 -15.7500  17.5000 Du        
  16634 ****        -6.2500 -15.7500  17.7500 Du        
  16635 ****        -6.2500 -15.7500  18.0000 Du        
  16636 ****        -6.2500 -15.7500  18.2500 Du        
  16637 ****        -6.2500 -15.7500  18.5000 Du        
  16638 ****        -6.2500 -15.7500  18.7500 Du        
  16639 ****        -6.2500 -15.7500  19.0000 Du        
  16640 ****        -6.2500 -15.7500  19.2500 Du        
  16641 ****        -6.2500 -15.7500  19.5000 Du        
  16642 ****        -6.2500 -15.7500  19.7500 Du        
  16643 ****        -6.2500 -15.7500  20.0000 Du        
  16644 ****        -6.2500 -15.7500  20.2500 Du        
  16645 ****        -6.2500 -15.5000  17.2500 Du        
  16646 ****        -6.2500 -15.5000  17.5000 Du        
  16647 ****        -6.2500 -15.5000  17.7500 Du        
  16648 ****        -6.2500 -15.5000  18.0000 Du        
  16649 ****        -6.2500 -15.5000  18.2500 Du        
  16650 ****        -6.2500 -15.5000  18.5000 Du        
  16651 ****        -6.2500 -15.5000  18.7500 Du        
  16652 ****        -6.2500 -15.5000  19.0000 Du        
  16653 ****        -6.2500 -15.5000  19.2500 Du        
  16654 ****        -6.2500 -15.5000  19.5000 Du        
  16655 ****        -6.2500 -15.5000  19.7500 Du        
  16656 ****        -6.2500 -15.2500  17.2500 Du        
  16657 ****        -6.2500 -15.2500  17.5000 Du        
  16658 ****        -6.2500 -15.2500  17.7500 Du        
  16659 ****        -6.2500 -15.2500  18.0000 Du        
  16660 ****        -6.2500 -15.2500  18.2500 Du        
  16661 ****        -6.2500 -15.2500  18.5000 Du        
  16662 ****        -6.2500 -15.2500  18.7500 Du        
  16663 ****        -6.2500 -15.2500  19.0000 Du        
  16664 ****        -6.2500 -15.2500  19.2500 Du        
  16665 ****        -6.2500 -15.2500  19.5000 Du        
  16666 ****        -6.2500 -15.2500  19.7500 Du        
  16667 ****        -6.2500 -15.2500  20.0000 Du        
  16668 ****        -6.2500 -15.2500  20.2500 Du        
  16669 ****        -6.2500 -15.0000  19.0000 Du        
  16670 ****        -6.2500 -15.0000  19.2500 Du        
  16671 ****        -6.2500 -15.0000  19.7500 Du        
  16672 ****        -6.2500 -15.0000  20.0000 Du        
  16673 ****        -6.2500  -1.2500  20.7500 Du        
  16674 ****        -6.2500  -1.2500  21.0000 Du        
  16675 ****        -6.2500  -1.2500  21.2500 Du        
  16676 ****        -6.2500  -1.2500  21.5000 Du        
  16677 ****        -6.2500  -1.2500  21.7500 Du        
  16678 ****        -6.2500  -1.0000  20.2500 Du        
  16679 ****        -6.2500  -1.0000  20.5000 Du        
  16680 ****        -6.2500  -1.0000  20.7500 Du        
  16681 ****        -6.2500  -1.0000  21.0000 Du        
  16682 ****        -6.2500  -1.0000  21.2500 Du        
  16683 ****        -6.2500  -1.0000  21.5000 Du        
  16684 ****        -6.2500  -1.0000  21.7500 Du        
  16685 ****        -6.2500  -1.0000  22.0000 Du        
  16686 ****        -6.2500  -0.7500  20.2500 Du        
  16687 ****        -6.2500  -0.7500  20.5000 Du        
  16688 ****        -6.2500  -0.7500  20.7500 Du        
  16689 ****        -6.2500  -0.7500  21.0000 Du        
  16690 ****        -6.2500  -0.7500  21.2500 Du        
  16691 ****        -6.2500  -0.7500  21.5000 Du        
  16692 ****        -6.2500  -0.7500  21.7500 Du        
  16693 ****        -6.2500  -0.7500  22.0000 Du        
  16694 ****        -6.2500  -0.5000  20.2500 Du        
  16695 ****        -6.2500  -0.5000  20.5000 Du        
  16696 ****        -6.2500  -0.5000  20.7500 Du        
  16697 ****        -6.2500  -0.5000  21.0000 Du        
  16698 ****        -6.2500  -0.5000  21.2500 Du        
  16699 ****        -6.2500  -0.5000  21.5000 Du        
  16700 ****        -6.2500  -0.5000  21.7500 Du        
  16701 ****        -6.2500  -0.2500  20.2500 Du        
  16702 ****        -6.2500  -0.2500  20.5000 Du        
  16703 ****        -6.2500  -0.2500  20.7500 Du        
  16704 ****        -6.2500  -0.2500  21.0000 Du        
  16705 ****        -6.2500  -0.2500  21.2500 Du        
  16706 ****        -6.2500   0.0000  20.2500 Du        
  16707 ****        -6.2500   0.0000  20.5000 Du        
  16708 ****        -6.2500   0.0000  20.7500 Du        
  16709 ****        -6.2500   0.0000  21.0000 Du        
  16710 ****        -6.2500   0.2500  20.2500 Du        
  16711 ****        -6.2500   5.2500  10.0000 Du        
  16712 ****        -6.2500   5.2500  10.2500 Du        
  16713 ****        -6.2500   5.5000  10.0000 Du        
  16714 ****        -6.2500   5.5000  10.2500 Du        
  16715 ****        -6.2500   5.5000  10.5000 Du        
  16716 ****        -6.2500   5.7500  10.0000 Du        
  16717 ****        -6.2500   5.7500  10.2500 Du        
  16718 ****        -6.2500   5.7500  10.5000 Du        
  16719 ****        -6.2500   5.7500  10.7500 Du        
  16720 ****        -6.2500   6.0000  10.0000 Du        
  16721 ****        -6.2500   6.0000  10.2500 Du        
  16722 ****        -6.2500   6.0000  10.5000 Du        
  16723 ****        -6.2500   6.0000  10.7500 Du        
  16724 ****        -6.2500   6.2500  10.0000 Du        
  16725 ****        -6.2500   6.2500  10.2500 Du        
  16726 ****        -6.2500   6.2500  10.5000 Du        
  16727 ****        -6.2500   6.2500  10.7500 Du        
  16728 ****        -6.2500   6.5000  10.0000 Du        
  16729 ****        -6.2500   6.5000  10.2500 Du        
  16730 ****        -6.2500   6.5000  10.5000 Du        
  16731 ****        -6.2500   6.5000  10.7500 Du        
  16732 ****        -6.2500   6.7500  10.0000 Du        
  16733 ****        -6.2500   6.7500  10.2500 Du        
  16734 ****        -6.2500   6.7500  10.5000 Du        
  16735 ****        -6.2500   6.7500  10.7500 Du        
  16736 ****        -6.2500   7.0000  10.0000 Du        
  16737 ****        -6.2500   7.0000  10.2500 Du        
  16738 ****        -6.2500   7.0000  10.5000 Du        
  16739 ****        -6.2500   7.0000  10.7500 Du        
  16740 ****        -6.2500   7.0000  11.0000 Du        
  16741 ****        -6.2500   7.2500  10.0000 Du        
  16742 ****        -6.2500   7.2500  10.2500 Du        
  16743 ****        -6.2500   7.2500  10.5000 Du        
  16744 ****        -6.2500   7.2500  10.7500 Du        
  16745 ****        -6.2500  11.0000  27.7500 Du        
  16746 ****        -6.2500  11.0000  28.0000 Du        
  16747 ****        -6.2500  11.0000  28.2500 Du        
  16748 ****        -6.2500  11.0000  28.5000 Du        
  16749 ****        -6.2500  11.0000  28.7500 Du        
  16750 ****        -6.2500  11.0000  29.0000 Du        
  16751 ****        -6.2500  11.2500  27.5000 Du        
  16752 ****        -6.2500  11.2500  27.7500 Du        
  16753 ****        -6.2500  11.2500  28.0000 Du        
  16754 ****        -6.2500  11.2500  28.2500 Du        
  16755 ****        -6.2500  11.2500  28.5000 Du        
  16756 ****        -6.2500  11.2500  28.7500 Du        
  16757 ****        -6.2500  11.2500  29.0000 Du        
  16758 ****        -6.2500  11.2500  29.2500 Du        
  16759 ****        -6.2500  11.5000  27.2500 Du        
  16760 ****        -6.2500  11.5000  27.5000 Du        
  16761 ****        -6.2500  11.5000  27.7500 Du        
  16762 ****        -6.2500  11.5000  28.0000 Du        
  16763 ****        -6.2500  11.5000  28.2500 Du        
  16764 ****        -6.2500  11.5000  28.5000 Du        
  16765 ****        -6.2500  11.5000  28.7500 Du        
  16766 ****        -6.2500  11.5000  29.0000 Du        
  16767 ****        -6.2500  11.5000  29.2500 Du        
  16768 ****        -6.2500  11.7500  27.2500 Du        
  16769 ****        -6.2500  11.7500  27.5000 Du        
  16770 ****        -6.2500  11.7500  27.7500 Du        
  16771 ****        -6.2500  11.7500  28.0000 Du        
  16772 ****        -6.2500  11.7500  28.2500 Du        
  16773 ****        -6.2500  11.7500  28.5000 Du        
  16774 ****        -6.2500  11.7500  28.7500 Du        
  16775 ****        -6.2500  11.7500  29.0000 Du        
  16776 ****        -6.2500  11.7500  29.2500 Du        
  16777 ****        -6.2500  11.7500  29.5000 Du        
  16778 ****        -6.2500  11.7500  29.7500 Du        
  16779 ****        -6.2500  12.0000  27.2500 Du        
  16780 ****        -6.2500  12.0000  27.5000 Du        
  16781 ****        -6.2500  12.0000  27.7500 Du        
  16782 ****        -6.2500  12.0000  28.0000 Du        
  16783 ****        -6.2500  12.0000  28.2500 Du        
  16784 ****        -6.2500  12.0000  28.5000 Du        
  16785 ****        -6.2500  12.0000  28.7500 Du        
  16786 ****        -6.2500  12.0000  29.0000 Du        
  16787 ****        -6.2500  12.0000  29.2500 Du        
  16788 ****        -6.2500  12.0000  29.5000 Du        
  16789 ****        -6.2500  12.0000  29.7500 Du        
  16790 ****        -6.2500  12.0000  30.0000 Du        
  16791 ****        -6.2500  12.2500  27.2500 Du        
  16792 ****        -6.2500  12.2500  27.5000 Du        
  16793 ****        -6.2500  12.2500  27.7500 Du        
  16794 ****        -6.2500  12.2500  28.0000 Du        
  16795 ****        -6.2500  12.2500  28.2500 Du        
  16796 ****        -6.2500  12.2500  28.5000 Du        
  16797 ****        -6.2500  12.2500  28.7500 Du        
  16798 ****        -6.2500  12.2500  29.0000 Du        
  16799 ****        -6.2500  12.2500  29.2500 Du        
  16800 ****        -6.2500  12.2500  29.5000 Du        
  16801 ****        -6.2500  12.2500  29.7500 Du        
  16802 ****        -6.2500  12.2500  30.0000 Du        
  16803 ****        -6.2500  12.2500  30.2500 Du        
  16804 ****        -6.2500  12.5000  27.2500 Du        
  16805 ****        -6.2500  12.5000  27.5000 Du        
  16806 ****        -6.2500  12.5000  27.7500 Du        
  16807 ****        -6.2500  12.5000  28.0000 Du        
  16808 ****        -6.2500  12.5000  28.2500 Du        
  16809 ****        -6.2500  12.5000  28.5000 Du        
  16810 ****        -6.2500  12.5000  28.7500 Du        
  16811 ****        -6.2500  12.5000  29.0000 Du        
  16812 ****        -6.2500  12.5000  29.2500 Du        
  16813 ****        -6.2500  12.5000  29.5000 Du        
  16814 ****        -6.2500  12.5000  29.7500 Du        
  16815 ****        -6.2500  12.5000  30.0000 Du        
  16816 ****        -6.2500  12.5000  30.2500 Du        
  16817 ****        -6.2500  12.5000  30.5000 Du        
  16818 ****        -6.2500  12.5000  30.7500 Du        
  16819 ****        -6.2500  12.5000  31.0000 Du        
  16820 ****        -6.2500  12.7500  27.5000 Du        
  16821 ****        -6.2500  12.7500  27.7500 Du        
  16822 ****        -6.2500  12.7500  28.0000 Du        
  16823 ****        -6.2500  12.7500  28.2500 Du        
  16824 ****        -6.2500  12.7500  28.5000 Du        
  16825 ****        -6.2500  12.7500  28.7500 Du        
  16826 ****        -6.2500  12.7500  29.0000 Du        
  16827 ****        -6.2500  12.7500  29.2500 Du        
  16828 ****        -6.2500  12.7500  29.5000 Du        
  16829 ****        -6.2500  12.7500  29.7500 Du        
  16830 ****        -6.2500  12.7500  30.0000 Du        
  16831 ****        -6.2500  12.7500  30.2500 Du        
  16832 ****        -6.2500  12.7500  30.5000 Du        
  16833 ****        -6.2500  12.7500  30.7500 Du        
  16834 ****        -6.2500  12.7500  31.0000 Du        
  16835 ****        -6.2500  13.0000  27.7500 Du        
  16836 ****        -6.2500  13.0000  28.0000 Du        
  16837 ****        -6.2500  13.0000  28.2500 Du        
  16838 ****        -6.2500  13.0000  28.5000 Du        
  16839 ****        -6.2500  13.0000  28.7500 Du        
  16840 ****        -6.2500  13.0000  29.0000 Du        
  16841 ****        -6.2500  13.0000  29.2500 Du        
  16842 ****        -6.2500  13.0000  29.5000 Du        
  16843 ****        -6.2500  13.0000  29.7500 Du        
  16844 ****        -6.2500  13.0000  30.0000 Du        
  16845 ****        -6.2500  13.0000  30.2500 Du        
  16846 ****        -6.2500  13.0000  30.5000 Du        
  16847 ****        -6.2500  13.0000  30.7500 Du        
  16848 ****        -6.2500  13.0000  31.0000 Du        
  16849 ****        -6.2500  13.0000  31.2500 Du        
  16850 ****        -6.2500  13.2500  28.0000 Du        
  16851 ****        -6.2500  13.2500  28.2500 Du        
  16852 ****        -6.2500  13.2500  28.5000 Du        
  16853 ****        -6.2500  13.2500  28.7500 Du        
  16854 ****        -6.2500  13.2500  29.0000 Du        
  16855 ****        -6.2500  13.2500  29.2500 Du        
  16856 ****        -6.2500  13.2500  29.5000 Du        
  16857 ****        -6.2500  13.2500  29.7500 Du        
  16858 ****        -6.2500  13.2500  30.0000 Du        
  16859 ****        -6.2500  13.2500  30.2500 Du        
  16860 ****        -6.2500  13.2500  30.5000 Du        
  16861 ****        -6.2500  13.2500  30.7500 Du        
  16862 ****        -6.2500  13.2500  31.0000 Du        
  16863 ****        -6.2500  13.2500  31.2500 Du        
  16864 ****        -6.2500  13.5000  28.2500 Du        
  16865 ****        -6.2500  13.5000  28.5000 Du        
  16866 ****        -6.2500  13.5000  28.7500 Du        
  16867 ****        -6.2500  13.5000  29.0000 Du        
  16868 ****        -6.2500  13.5000  29.2500 Du        
  16869 ****        -6.2500  13.5000  29.5000 Du        
  16870 ****        -6.2500  13.5000  29.7500 Du        
  16871 ****        -6.2500  13.5000  30.0000 Du        
  16872 ****        -6.2500  13.5000  30.2500 Du        
  16873 ****        -6.2500  13.5000  30.5000 Du        
  16874 ****        -6.2500  13.5000  30.7500 Du        
  16875 ****        -6.2500  13.5000  31.0000 Du        
  16876 ****        -6.2500  13.5000  31.2500 Du        
  16877 ****        -6.2500  13.5000  31.5000 Du        
  16878 ****        -6.2500  13.5000  31.7500 Du        
  16879 ****        -6.2500  13.5000  32.0000 Du        
  16880 ****        -6.2500  13.7500  28.5000 Du        
  16881 ****        -6.2500  13.7500  28.7500 Du        
  16882 ****        -6.2500  13.7500  29.0000 Du        
  16883 ****        -6.2500  13.7500  29.2500 Du        
  16884 ****        -6.2500  13.7500  29.5000 Du        
  16885 ****        -6.2500  13.7500  29.7500 Du        
  16886 ****        -6.2500  13.7500  30.0000 Du        
  16887 ****        -6.2500  13.7500  30.2500 Du        
  16888 ****        -6.2500  13.7500  30.5000 Du        
  16889 ****        -6.2500  13.7500  30.7500 Du        
  16890 ****        -6.2500  13.7500  31.0000 Du        
  16891 ****        -6.2500  13.7500  31.2500 Du        
  16892 ****        -6.2500  13.7500  31.5000 Du        
  16893 ****        -6.2500  13.7500  31.7500 Du        
  16894 ****        -6.2500  13.7500  32.0000 Du        
  16895 ****        -6.2500  13.7500  32.2500 Du        
  16896 ****        -6.2500  14.0000  28.5000 Du        
  16897 ****        -6.2500  14.0000  28.7500 Du        
  16898 ****        -6.2500  14.0000  29.0000 Du        
  16899 ****        -6.2500  14.0000  29.2500 Du        
  16900 ****        -6.2500  14.0000  29.5000 Du        
  16901 ****        -6.2500  14.0000  29.7500 Du        
  16902 ****        -6.2500  14.0000  30.0000 Du        
  16903 ****        -6.2500  14.0000  30.2500 Du        
  16904 ****        -6.2500  14.0000  30.5000 Du        
  16905 ****        -6.2500  14.0000  30.7500 Du        
  16906 ****        -6.2500  14.0000  31.0000 Du        
  16907 ****        -6.2500  14.0000  31.2500 Du        
  16908 ****        -6.2500  14.0000  31.5000 Du        
  16909 ****        -6.2500  14.0000  31.7500 Du        
  16910 ****        -6.2500  14.0000  32.0000 Du        
  16911 ****        -6.2500  14.0000  32.2500 Du        
  16912 ****        -6.2500  14.2500  28.7500 Du        
  16913 ****        -6.2500  14.2500  29.0000 Du        
  16914 ****        -6.2500  14.2500  29.2500 Du        
  16915 ****        -6.2500  14.2500  29.5000 Du        
  16916 ****        -6.2500  14.2500  29.7500 Du        
  16917 ****        -6.2500  14.2500  30.0000 Du        
  16918 ****        -6.2500  14.2500  30.2500 Du        
  16919 ****        -6.2500  14.2500  30.5000 Du        
  16920 ****        -6.2500  14.2500  30.7500 Du        
  16921 ****        -6.2500  14.2500  31.0000 Du        
  16922 ****        -6.2500  14.2500  31.2500 Du        
  16923 ****        -6.2500  14.2500  31.5000 Du        
  16924 ****        -6.2500  14.2500  31.7500 Du        
  16925 ****        -6.2500  14.2500  32.0000 Du        
  16926 ****        -6.2500  14.2500  32.2500 Du        
  16927 ****        -6.2500  14.5000  28.7500 Du        
  16928 ****        -6.2500  14.5000  29.0000 Du        
  16929 ****        -6.2500  14.5000  29.2500 Du        
  16930 ****        -6.2500  14.5000  29.5000 Du        
  16931 ****        -6.2500  14.5000  29.7500 Du        
  16932 ****        -6.2500  14.5000  30.0000 Du        
  16933 ****        -6.2500  14.5000  30.2500 Du        
  16934 ****        -6.2500  14.5000  30.5000 Du        
  16935 ****        -6.2500  14.5000  30.7500 Du        
  16936 ****        -6.2500  14.5000  31.0000 Du        
  16937 ****        -6.2500  14.5000  31.2500 Du        
  16938 ****        -6.2500  14.5000  31.5000 Du        
  16939 ****        -6.2500  14.5000  31.7500 Du        
  16940 ****        -6.2500  14.5000  32.0000 Du        
  16941 ****        -6.2500  14.5000  32.2500 Du        
  16942 ****        -6.2500  14.5000  32.5000 Du        
  16943 ****        -6.2500  14.5000  32.7500 Du        
  16944 ****        -6.2500  14.5000  34.0000 Du        
  16945 ****        -6.2500  14.7500  28.7500 Du        
  16946 ****        -6.2500  14.7500  29.0000 Du        
  16947 ****        -6.2500  14.7500  29.2500 Du        
  16948 ****        -6.2500  14.7500  29.5000 Du        
  16949 ****        -6.2500  14.7500  29.7500 Du        
  16950 ****        -6.2500  14.7500  30.0000 Du        
  16951 ****        -6.2500  14.7500  30.2500 Du        
  16952 ****        -6.2500  14.7500  30.5000 Du        
  16953 ****        -6.2500  14.7500  32.7500 Du        
  16954 ****        -6.2500  14.7500  33.0000 Du        
  16955 ****        -6.2500  14.7500  33.2500 Du        
  16956 ****        -6.2500  14.7500  33.5000 Du        
  16957 ****        -6.2500  14.7500  33.7500 Du        
  16958 ****        -6.2500  14.7500  34.0000 Du        
  16959 ****        -6.2500  14.7500  34.2500 Du        
  16960 ****        -6.2500  14.7500  34.5000 Du        
  16961 ****        -6.2500  14.7500  34.7500 Du        
  16962 ****        -6.2500  14.7500  35.0000 Du        
  16963 ****        -6.2500  15.0000  28.7500 Du        
  16964 ****        -6.2500  15.0000  29.0000 Du        
  16965 ****        -6.2500  15.0000  29.2500 Du        
  16966 ****        -6.2500  15.0000  29.5000 Du        
  16967 ****        -6.2500  15.0000  29.7500 Du        
  16968 ****        -6.2500  15.0000  30.0000 Du        
  16969 ****        -6.2500  15.0000  33.0000 Du        
  16970 ****        -6.2500  15.0000  33.2500 Du        
  16971 ****        -6.2500  15.0000  33.5000 Du        
  16972 ****        -6.2500  15.0000  33.7500 Du        
  16973 ****        -6.2500  15.0000  34.0000 Du        
  16974 ****        -6.2500  15.0000  34.2500 Du        
  16975 ****        -6.2500  15.0000  34.5000 Du        
  16976 ****        -6.2500  15.0000  34.7500 Du        
  16977 ****        -6.2500  15.0000  35.0000 Du        
  16978 ****        -6.2500  15.2500  28.7500 Du        
  16979 ****        -6.2500  15.2500  29.0000 Du        
  16980 ****        -6.2500  15.2500  29.2500 Du        
  16981 ****        -6.2500  15.2500  29.5000 Du        
  16982 ****        -6.2500  15.2500  33.2500 Du        
  16983 ****        -6.2500  15.2500  33.5000 Du        
  16984 ****        -6.2500  15.2500  33.7500 Du        
  16985 ****        -6.2500  15.2500  34.0000 Du        
  16986 ****        -6.2500  15.2500  34.2500 Du        
  16987 ****        -6.2500  15.2500  34.5000 Du        
  16988 ****        -6.2500  15.2500  34.7500 Du        
  16989 ****        -6.2500  15.2500  35.0000 Du        
  16990 ****        -6.2500  15.5000  29.0000 Du        
  16991 ****        -6.2500  15.5000  33.7500 Du        
  16992 ****        -6.2500  15.5000  34.0000 Du        
  16993 ****        -6.2500  15.5000  34.2500 Du        
  16994 ****        -6.0000 -21.7500  18.7500 Du        
  16995 ****        -6.0000 -21.5000  18.7500 Du        
  16996 ****        -6.0000 -21.5000  19.0000 Du        
  16997 ****        -6.0000 -21.2500  18.5000 Du        
  16998 ****        -6.0000 -21.2500  18.7500 Du        
  16999 ****        -6.0000 -21.2500  19.0000 Du        
  17000 ****        -6.0000 -21.2500  19.2500 Du        
  17001 ****        -6.0000 -21.0000  18.5000 Du        
  17002 ****        -6.0000 -21.0000  18.7500 Du        
  17003 ****        -6.0000 -21.0000  19.0000 Du        
  17004 ****        -6.0000 -21.0000  19.2500 Du        
  17005 ****        -6.0000 -20.7500  18.7500 Du        
  17006 ****        -6.0000 -20.7500  19.0000 Du        
  17007 ****        -6.0000 -20.7500  19.2500 Du        
  17008 ****        -6.0000 -20.5000  18.7500 Du        
  17009 ****        -6.0000 -20.5000  19.0000 Du        
  17010 ****        -6.0000 -20.5000  19.2500 Du        
  17011 ****        -6.0000 -20.2500  18.7500 Du        
  17012 ****        -6.0000 -20.2500  19.0000 Du        
  17013 ****        -6.0000 -20.2500  19.2500 Du        
  17014 ****        -6.0000 -20.2500  19.5000 Du        
  17015 ****        -6.0000 -20.0000  18.7500 Du        
  17016 ****        -6.0000 -20.0000  19.0000 Du        
  17017 ****        -6.0000 -20.0000  19.2500 Du        
  17018 ****        -6.0000 -20.0000  19.5000 Du        
  17019 ****        -6.0000 -19.7500  18.7500 Du        
  17020 ****        -6.0000 -19.7500  19.0000 Du        
  17021 ****        -6.0000 -19.7500  19.2500 Du        
  17022 ****        -6.0000 -19.7500  19.5000 Du        
  17023 ****        -6.0000 -19.7500  19.7500 Du        
  17024 ****        -6.0000 -19.5000  18.7500 Du        
  17025 ****        -6.0000 -19.5000  19.0000 Du        
  17026 ****        -6.0000 -19.5000  19.2500 Du        
  17027 ****        -6.0000 -19.5000  19.5000 Du        
  17028 ****        -6.0000 -19.5000  19.7500 Du        
  17029 ****        -6.0000 -19.2500  18.7500 Du        
  17030 ****        -6.0000 -19.2500  19.0000 Du        
  17031 ****        -6.0000 -19.2500  19.2500 Du        
  17032 ****        -6.0000 -19.2500  19.5000 Du        
  17033 ****        -6.0000 -19.2500  19.7500 Du        
  17034 ****        -6.0000 -19.2500  20.0000 Du        
  17035 ****        -6.0000 -19.0000  18.7500 Du        
  17036 ****        -6.0000 -19.0000  19.0000 Du        
  17037 ****        -6.0000 -19.0000  19.2500 Du        
  17038 ****        -6.0000 -19.0000  19.5000 Du        
  17039 ****        -6.0000 -19.0000  19.7500 Du        
  17040 ****        -6.0000 -19.0000  20.0000 Du        
  17041 ****        -6.0000 -19.0000  20.2500 Du        
  17042 ****        -6.0000 -18.7500  18.7500 Du        
  17043 ****        -6.0000 -18.7500  19.0000 Du        
  17044 ****        -6.0000 -18.7500  19.2500 Du        
  17045 ****        -6.0000 -18.7500  19.5000 Du        
  17046 ****        -6.0000 -18.7500  19.7500 Du        
  17047 ****        -6.0000 -18.7500  20.0000 Du        
  17048 ****        -6.0000 -18.7500  20.2500 Du        
  17049 ****        -6.0000 -18.5000  18.7500 Du        
  17050 ****        -6.0000 -18.5000  19.0000 Du        
  17051 ****        -6.0000 -18.5000  19.2500 Du        
  17052 ****        -6.0000 -18.5000  19.5000 Du        
  17053 ****        -6.0000 -18.5000  19.7500 Du        
  17054 ****        -6.0000 -18.5000  20.0000 Du        
  17055 ****        -6.0000 -18.5000  20.2500 Du        
  17056 ****        -6.0000 -18.2500  18.5000 Du        
  17057 ****        -6.0000 -18.2500  18.7500 Du        
  17058 ****        -6.0000 -18.2500  19.0000 Du        
  17059 ****        -6.0000 -18.2500  19.2500 Du        
  17060 ****        -6.0000 -18.2500  19.5000 Du        
  17061 ****        -6.0000 -18.2500  19.7500 Du        
  17062 ****        -6.0000 -18.2500  20.0000 Du        
  17063 ****        -6.0000 -18.2500  20.2500 Du        
  17064 ****        -6.0000 -18.2500  20.5000 Du        
  17065 ****        -6.0000 -18.2500  23.0000 Du        
  17066 ****        -6.0000 -18.2500  23.2500 Du        
  17067 ****        -6.0000 -18.2500  23.5000 Du        
  17068 ****        -6.0000 -18.0000  18.5000 Du        
  17069 ****        -6.0000 -18.0000  18.7500 Du        
  17070 ****        -6.0000 -18.0000  19.0000 Du        
  17071 ****        -6.0000 -18.0000  19.2500 Du        
  17072 ****        -6.0000 -18.0000  19.5000 Du        
  17073 ****        -6.0000 -18.0000  19.7500 Du        
  17074 ****        -6.0000 -18.0000  20.0000 Du        
  17075 ****        -6.0000 -18.0000  20.2500 Du        
  17076 ****        -6.0000 -18.0000  20.5000 Du        
  17077 ****        -6.0000 -18.0000  20.7500 Du        
  17078 ****        -6.0000 -18.0000  22.7500 Du        
  17079 ****        -6.0000 -18.0000  23.0000 Du        
  17080 ****        -6.0000 -18.0000  23.2500 Du        
  17081 ****        -6.0000 -18.0000  23.5000 Du        
  17082 ****        -6.0000 -17.7500  18.5000 Du        
  17083 ****        -6.0000 -17.7500  18.7500 Du        
  17084 ****        -6.0000 -17.7500  19.0000 Du        
  17085 ****        -6.0000 -17.7500  19.2500 Du        
  17086 ****        -6.0000 -17.7500  19.5000 Du        
  17087 ****        -6.0000 -17.7500  19.7500 Du        
  17088 ****        -6.0000 -17.7500  20.0000 Du        
  17089 ****        -6.0000 -17.7500  20.2500 Du        
  17090 ****        -6.0000 -17.7500  20.5000 Du        
  17091 ****        -6.0000 -17.7500  20.7500 Du        
  17092 ****        -6.0000 -17.7500  22.7500 Du        
  17093 ****        -6.0000 -17.7500  23.0000 Du        
  17094 ****        -6.0000 -17.7500  23.2500 Du        
  17095 ****        -6.0000 -17.7500  23.5000 Du        
  17096 ****        -6.0000 -17.5000  18.5000 Du        
  17097 ****        -6.0000 -17.5000  18.7500 Du        
  17098 ****        -6.0000 -17.5000  19.0000 Du        
  17099 ****        -6.0000 -17.5000  19.2500 Du        
  17100 ****        -6.0000 -17.5000  19.5000 Du        
  17101 ****        -6.0000 -17.5000  19.7500 Du        
  17102 ****        -6.0000 -17.5000  20.0000 Du        
  17103 ****        -6.0000 -17.5000  20.2500 Du        
  17104 ****        -6.0000 -17.5000  20.5000 Du        
  17105 ****        -6.0000 -17.5000  20.7500 Du        
  17106 ****        -6.0000 -17.5000  23.0000 Du        
  17107 ****        -6.0000 -17.5000  23.2500 Du        
  17108 ****        -6.0000 -17.5000  23.5000 Du        
  17109 ****        -6.0000 -17.2500  18.5000 Du        
  17110 ****        -6.0000 -17.2500  18.7500 Du        
  17111 ****        -6.0000 -17.2500  19.0000 Du        
  17112 ****        -6.0000 -17.2500  19.2500 Du        
  17113 ****        -6.0000 -17.2500  19.5000 Du        
  17114 ****        -6.0000 -17.2500  19.7500 Du        
  17115 ****        -6.0000 -17.2500  20.0000 Du        
  17116 ****        -6.0000 -17.2500  20.2500 Du        
  17117 ****        -6.0000 -17.2500  20.5000 Du        
  17118 ****        -6.0000 -17.2500  20.7500 Du        
  17119 ****        -6.0000 -17.2500  21.0000 Du        
  17120 ****        -6.0000 -17.2500  23.0000 Du        
  17121 ****        -6.0000 -17.2500  23.2500 Du        
  17122 ****        -6.0000 -17.2500  23.5000 Du        
  17123 ****        -6.0000 -17.0000  18.2500 Du        
  17124 ****        -6.0000 -17.0000  18.5000 Du        
  17125 ****        -6.0000 -17.0000  18.7500 Du        
  17126 ****        -6.0000 -17.0000  19.0000 Du        
  17127 ****        -6.0000 -17.0000  19.2500 Du        
  17128 ****        -6.0000 -17.0000  19.5000 Du        
  17129 ****        -6.0000 -17.0000  19.7500 Du        
  17130 ****        -6.0000 -17.0000  20.0000 Du        
  17131 ****        -6.0000 -17.0000  20.2500 Du        
  17132 ****        -6.0000 -17.0000  20.5000 Du        
  17133 ****        -6.0000 -17.0000  20.7500 Du        
  17134 ****        -6.0000 -17.0000  23.0000 Du        
  17135 ****        -6.0000 -16.7500  18.0000 Du        
  17136 ****        -6.0000 -16.7500  18.2500 Du        
  17137 ****        -6.0000 -16.7500  18.5000 Du        
  17138 ****        -6.0000 -16.7500  18.7500 Du        
  17139 ****        -6.0000 -16.7500  19.0000 Du        
  17140 ****        -6.0000 -16.7500  19.2500 Du        
  17141 ****        -6.0000 -16.7500  19.5000 Du        
  17142 ****        -6.0000 -16.7500  19.7500 Du        
  17143 ****        -6.0000 -16.7500  20.0000 Du        
  17144 ****        -6.0000 -16.7500  20.2500 Du        
  17145 ****        -6.0000 -16.7500  20.5000 Du        
  17146 ****        -6.0000 -16.5000  18.0000 Du        
  17147 ****        -6.0000 -16.5000  18.2500 Du        
  17148 ****        -6.0000 -16.5000  18.5000 Du        
  17149 ****        -6.0000 -16.5000  18.7500 Du        
  17150 ****        -6.0000 -16.5000  19.0000 Du        
  17151 ****        -6.0000 -16.5000  19.2500 Du        
  17152 ****        -6.0000 -16.5000  19.5000 Du        
  17153 ****        -6.0000 -16.5000  19.7500 Du        
  17154 ****        -6.0000 -16.5000  20.0000 Du        
  17155 ****        -6.0000 -16.5000  20.2500 Du        
  17156 ****        -6.0000 -16.2500  17.7500 Du        
  17157 ****        -6.0000 -16.2500  18.0000 Du        
  17158 ****        -6.0000 -16.2500  18.2500 Du        
  17159 ****        -6.0000 -16.2500  18.5000 Du        
  17160 ****        -6.0000 -16.2500  18.7500 Du        
  17161 ****        -6.0000 -16.2500  19.0000 Du        
  17162 ****        -6.0000 -16.2500  19.2500 Du        
  17163 ****        -6.0000 -16.2500  19.5000 Du        
  17164 ****        -6.0000 -16.2500  19.7500 Du        
  17165 ****        -6.0000 -16.2500  20.0000 Du        
  17166 ****        -6.0000 -16.2500  20.2500 Du        
  17167 ****        -6.0000 -16.0000  17.2500 Du        
  17168 ****        -6.0000 -16.0000  17.5000 Du        
  17169 ****        -6.0000 -16.0000  17.7500 Du        
  17170 ****        -6.0000 -16.0000  18.0000 Du        
  17171 ****        -6.0000 -16.0000  18.2500 Du        
  17172 ****        -6.0000 -16.0000  18.5000 Du        
  17173 ****        -6.0000 -16.0000  18.7500 Du        
  17174 ****        -6.0000 -16.0000  19.0000 Du        
  17175 ****        -6.0000 -16.0000  19.2500 Du        
  17176 ****        -6.0000 -16.0000  19.5000 Du        
  17177 ****        -6.0000 -16.0000  19.7500 Du        
  17178 ****        -6.0000 -16.0000  20.0000 Du        
  17179 ****        -6.0000 -15.7500  17.2500 Du        
  17180 ****        -6.0000 -15.7500  17.5000 Du        
  17181 ****        -6.0000 -15.7500  17.7500 Du        
  17182 ****        -6.0000 -15.7500  18.0000 Du        
  17183 ****        -6.0000 -15.7500  18.2500 Du        
  17184 ****        -6.0000 -15.7500  18.5000 Du        
  17185 ****        -6.0000 -15.7500  18.7500 Du        
  17186 ****        -6.0000 -15.7500  19.0000 Du        
  17187 ****        -6.0000 -15.7500  19.2500 Du        
  17188 ****        -6.0000 -15.7500  19.5000 Du        
  17189 ****        -6.0000 -15.7500  19.7500 Du        
  17190 ****        -6.0000 -15.7500  20.0000 Du        
  17191 ****        -6.0000 -15.7500  20.2500 Du        
  17192 ****        -6.0000 -15.5000  17.2500 Du        
  17193 ****        -6.0000 -15.5000  17.5000 Du        
  17194 ****        -6.0000 -15.5000  17.7500 Du        
  17195 ****        -6.0000 -15.5000  18.0000 Du        
  17196 ****        -6.0000 -15.5000  18.2500 Du        
  17197 ****        -6.0000 -15.5000  18.5000 Du        
  17198 ****        -6.0000 -15.5000  18.7500 Du        
  17199 ****        -6.0000 -15.5000  19.0000 Du        
  17200 ****        -6.0000 -15.5000  19.2500 Du        
  17201 ****        -6.0000 -15.5000  19.5000 Du        
  17202 ****        -6.0000 -15.5000  19.7500 Du        
  17203 ****        -6.0000 -15.2500  17.2500 Du        
  17204 ****        -6.0000 -15.2500  17.5000 Du        
  17205 ****        -6.0000 -15.2500  17.7500 Du        
  17206 ****        -6.0000 -15.2500  18.0000 Du        
  17207 ****        -6.0000 -15.2500  18.2500 Du        
  17208 ****        -6.0000 -15.2500  18.5000 Du        
  17209 ****        -6.0000 -15.2500  18.7500 Du        
  17210 ****        -6.0000 -15.2500  19.0000 Du        
  17211 ****        -6.0000 -15.2500  19.2500 Du        
  17212 ****        -6.0000 -15.2500  19.5000 Du        
  17213 ****        -6.0000 -15.2500  19.7500 Du        
  17214 ****        -6.0000 -15.2500  20.0000 Du        
  17215 ****        -6.0000 -15.0000  17.5000 Du        
  17216 ****        -6.0000 -15.0000  17.7500 Du        
  17217 ****        -6.0000 -15.0000  18.0000 Du        
  17218 ****        -6.0000 -15.0000  18.2500 Du        
  17219 ****        -6.0000 -15.0000  18.5000 Du        
  17220 ****        -6.0000 -15.0000  18.7500 Du        
  17221 ****        -6.0000 -15.0000  19.0000 Du        
  17222 ****        -6.0000 -15.0000  19.2500 Du        
  17223 ****        -6.0000 -15.0000  19.5000 Du        
  17224 ****        -6.0000 -15.0000  19.7500 Du        
  17225 ****        -6.0000 -15.0000  20.0000 Du        
  17226 ****        -6.0000  -8.2500  21.0000 Du        
  17227 ****        -6.0000  -8.2500  21.2500 Du        
  17228 ****        -6.0000  -8.0000  20.7500 Du        
  17229 ****        -6.0000  -8.0000  21.0000 Du        
  17230 ****        -6.0000  -8.0000  21.2500 Du        
  17231 ****        -6.0000  -7.7500  21.0000 Du        
  17232 ****        -6.0000  -7.7500  21.2500 Du        
  17233 ****        -6.0000  -1.5000  21.2500 Du        
  17234 ****        -6.0000  -1.2500  20.2500 Du        
  17235 ****        -6.0000  -1.2500  20.5000 Du        
  17236 ****        -6.0000  -1.2500  20.7500 Du        
  17237 ****        -6.0000  -1.2500  21.0000 Du        
  17238 ****        -6.0000  -1.2500  21.2500 Du        
  17239 ****        -6.0000  -1.2500  21.5000 Du        
  17240 ****        -6.0000  -1.2500  21.7500 Du        
  17241 ****        -6.0000  -1.0000  20.0000 Du        
  17242 ****        -6.0000  -1.0000  20.2500 Du        
  17243 ****        -6.0000  -1.0000  20.5000 Du        
  17244 ****        -6.0000  -1.0000  20.7500 Du        
  17245 ****        -6.0000  -1.0000  21.0000 Du        
  17246 ****        -6.0000  -1.0000  21.2500 Du        
  17247 ****        -6.0000  -1.0000  21.5000 Du        
  17248 ****        -6.0000  -1.0000  21.7500 Du        
  17249 ****        -6.0000  -0.7500  20.0000 Du        
  17250 ****        -6.0000  -0.7500  20.2500 Du        
  17251 ****        -6.0000  -0.7500  20.5000 Du        
  17252 ****        -6.0000  -0.7500  20.7500 Du        
  17253 ****        -6.0000  -0.7500  21.0000 Du        
  17254 ****        -6.0000  -0.7500  21.2500 Du        
  17255 ****        -6.0000  -0.7500  21.5000 Du        
  17256 ****        -6.0000  -0.7500  21.7500 Du        
  17257 ****        -6.0000  -0.5000  20.0000 Du        
  17258 ****        -6.0000  -0.5000  20.2500 Du        
  17259 ****        -6.0000  -0.5000  20.5000 Du        
  17260 ****        -6.0000  -0.5000  20.7500 Du        
  17261 ****        -6.0000  -0.5000  21.0000 Du        
  17262 ****        -6.0000  -0.5000  21.2500 Du        
  17263 ****        -6.0000  -0.5000  21.5000 Du        
  17264 ****        -6.0000  -0.2500  20.0000 Du        
  17265 ****        -6.0000  -0.2500  20.2500 Du        
  17266 ****        -6.0000  -0.2500  20.5000 Du        
  17267 ****        -6.0000  -0.2500  20.7500 Du        
  17268 ****        -6.0000  -0.2500  21.0000 Du        
  17269 ****        -6.0000  -0.2500  21.2500 Du        
  17270 ****        -6.0000   0.0000  20.2500 Du        
  17271 ****        -6.0000   0.0000  20.5000 Du        
  17272 ****        -6.0000   5.0000  10.0000 Du        
  17273 ****        -6.0000   5.2500  10.0000 Du        
  17274 ****        -6.0000   5.2500  10.2500 Du        
  17275 ****        -6.0000   5.2500  10.5000 Du        
  17276 ****        -6.0000   5.5000  10.0000 Du        
  17277 ****        -6.0000   5.5000  10.2500 Du        
  17278 ****        -6.0000   5.5000  10.5000 Du        
  17279 ****        -6.0000   5.5000  10.7500 Du        
  17280 ****        -6.0000   5.7500  10.0000 Du        
  17281 ****        -6.0000   5.7500  10.2500 Du        
  17282 ****        -6.0000   5.7500  10.5000 Du        
  17283 ****        -6.0000   5.7500  10.7500 Du        
  17284 ****        -6.0000   6.0000  10.0000 Du        
  17285 ****        -6.0000   6.0000  10.2500 Du        
  17286 ****        -6.0000   6.0000  10.5000 Du        
  17287 ****        -6.0000   6.0000  10.7500 Du        
  17288 ****        -6.0000   6.0000  11.0000 Du        
  17289 ****        -6.0000   6.2500  10.0000 Du        
  17290 ****        -6.0000   6.2500  10.2500 Du        
  17291 ****        -6.0000   6.2500  10.5000 Du        
  17292 ****        -6.0000   6.2500  10.7500 Du        
  17293 ****        -6.0000   6.2500  11.0000 Du        
  17294 ****        -6.0000   6.5000  10.0000 Du        
  17295 ****        -6.0000   6.5000  10.2500 Du        
  17296 ****        -6.0000   6.5000  10.5000 Du        
  17297 ****        -6.0000   6.5000  10.7500 Du        
  17298 ****        -6.0000   6.5000  11.0000 Du        
  17299 ****        -6.0000   6.7500  10.0000 Du        
  17300 ****        -6.0000   6.7500  10.2500 Du        
  17301 ****        -6.0000   6.7500  10.5000 Du        
  17302 ****        -6.0000   6.7500  10.7500 Du        
  17303 ****        -6.0000   6.7500  11.0000 Du        
  17304 ****        -6.0000   7.0000  10.0000 Du        
  17305 ****        -6.0000   7.0000  10.2500 Du        
  17306 ****        -6.0000   7.0000  10.5000 Du        
  17307 ****        -6.0000   7.0000  10.7500 Du        
  17308 ****        -6.0000   7.0000  11.0000 Du        
  17309 ****        -6.0000   7.2500  10.0000 Du        
  17310 ****        -6.0000   7.2500  10.2500 Du        
  17311 ****        -6.0000   7.2500  10.5000 Du        
  17312 ****        -6.0000   7.2500  10.7500 Du        
  17313 ****        -6.0000  11.2500  27.7500 Du        
  17314 ****        -6.0000  11.2500  28.0000 Du        
  17315 ****        -6.0000  11.2500  28.2500 Du        
  17316 ****        -6.0000  11.5000  27.5000 Du        
  17317 ****        -6.0000  11.5000  27.7500 Du        
  17318 ****        -6.0000  11.5000  28.0000 Du        
  17319 ****        -6.0000  11.5000  28.2500 Du        
  17320 ****        -6.0000  11.5000  28.5000 Du        
  17321 ****        -6.0000  11.5000  28.7500 Du        
  17322 ****        -6.0000  11.5000  29.0000 Du        
  17323 ****        -6.0000  11.5000  29.2500 Du        
  17324 ****        -6.0000  11.7500  27.5000 Du        
  17325 ****        -6.0000  11.7500  27.7500 Du        
  17326 ****        -6.0000  11.7500  28.0000 Du        
  17327 ****        -6.0000  11.7500  28.2500 Du        
  17328 ****        -6.0000  11.7500  28.5000 Du        
  17329 ****        -6.0000  11.7500  28.7500 Du        
  17330 ****        -6.0000  11.7500  29.0000 Du        
  17331 ****        -6.0000  11.7500  29.2500 Du        
  17332 ****        -6.0000  12.0000  27.5000 Du        
  17333 ****        -6.0000  12.0000  27.7500 Du        
  17334 ****        -6.0000  12.0000  28.0000 Du        
  17335 ****        -6.0000  12.0000  28.2500 Du        
  17336 ****        -6.0000  12.0000  28.5000 Du        
  17337 ****        -6.0000  12.0000  28.7500 Du        
  17338 ****        -6.0000  12.0000  29.0000 Du        
  17339 ****        -6.0000  12.0000  29.2500 Du        
  17340 ****        -6.0000  12.0000  29.5000 Du        
  17341 ****        -6.0000  12.0000  29.7500 Du        
  17342 ****        -6.0000  12.0000  30.0000 Du        
  17343 ****        -6.0000  12.2500  27.2500 Du        
  17344 ****        -6.0000  12.2500  27.5000 Du        
  17345 ****        -6.0000  12.2500  27.7500 Du        
  17346 ****        -6.0000  12.2500  28.0000 Du        
  17347 ****        -6.0000  12.2500  28.2500 Du        
  17348 ****        -6.0000  12.2500  28.5000 Du        
  17349 ****        -6.0000  12.2500  28.7500 Du        
  17350 ****        -6.0000  12.2500  29.0000 Du        
  17351 ****        -6.0000  12.2500  29.2500 Du        
  17352 ****        -6.0000  12.2500  29.5000 Du        
  17353 ****        -6.0000  12.2500  29.7500 Du        
  17354 ****        -6.0000  12.2500  30.0000 Du        
  17355 ****        -6.0000  12.2500  30.2500 Du        
  17356 ****        -6.0000  12.5000  27.5000 Du        
  17357 ****        -6.0000  12.5000  27.7500 Du        
  17358 ****        -6.0000  12.5000  28.0000 Du        
  17359 ****        -6.0000  12.5000  28.2500 Du        
  17360 ****        -6.0000  12.5000  28.5000 Du        
  17361 ****        -6.0000  12.5000  28.7500 Du        
  17362 ****        -6.0000  12.5000  29.0000 Du        
  17363 ****        -6.0000  12.5000  29.2500 Du        
  17364 ****        -6.0000  12.5000  29.5000 Du        
  17365 ****        -6.0000  12.5000  29.7500 Du        
  17366 ****        -6.0000  12.5000  30.0000 Du        
  17367 ****        -6.0000  12.5000  30.2500 Du        
  17368 ****        -6.0000  12.5000  30.5000 Du        
  17369 ****        -6.0000  12.5000  30.7500 Du        
  17370 ****        -6.0000  12.5000  31.0000 Du        
  17371 ****        -6.0000  12.7500  27.5000 Du        
  17372 ****        -6.0000  12.7500  27.7500 Du        
  17373 ****        -6.0000  12.7500  28.0000 Du        
  17374 ****        -6.0000  12.7500  28.2500 Du        
  17375 ****        -6.0000  12.7500  28.5000 Du        
  17376 ****        -6.0000  12.7500  28.7500 Du        
  17377 ****        -6.0000  12.7500  29.0000 Du        
  17378 ****        -6.0000  12.7500  29.2500 Du        
  17379 ****        -6.0000  12.7500  29.5000 Du        
  17380 ****        -6.0000  12.7500  29.7500 Du        
  17381 ****        -6.0000  12.7500  30.0000 Du        
  17382 ****        -6.0000  12.7500  30.2500 Du        
  17383 ****        -6.0000  12.7500  30.5000 Du        
  17384 ****        -6.0000  12.7500  30.7500 Du        
  17385 ****        -6.0000  12.7500  31.0000 Du        
  17386 ****        -6.0000  12.7500  31.2500 Du        
  17387 ****        -6.0000  13.0000  27.7500 Du        
  17388 ****        -6.0000  13.0000  28.0000 Du        
  17389 ****        -6.0000  13.0000  28.2500 Du        
  17390 ****        -6.0000  13.0000  28.5000 Du        
  17391 ****        -6.0000  13.0000  28.7500 Du        
  17392 ****        -6.0000  13.0000  29.0000 Du        
  17393 ****        -6.0000  13.0000  29.2500 Du        
  17394 ****        -6.0000  13.0000  29.5000 Du        
  17395 ****        -6.0000  13.0000  29.7500 Du        
  17396 ****        -6.0000  13.0000  30.0000 Du        
  17397 ****        -6.0000  13.0000  30.2500 Du        
  17398 ****        -6.0000  13.0000  30.5000 Du        
  17399 ****        -6.0000  13.0000  30.7500 Du        
  17400 ****        -6.0000  13.0000  31.0000 Du        
  17401 ****        -6.0000  13.0000  31.2500 Du        
  17402 ****        -6.0000  13.2500  28.0000 Du        
  17403 ****        -6.0000  13.2500  28.2500 Du        
  17404 ****        -6.0000  13.2500  28.5000 Du        
  17405 ****        -6.0000  13.2500  28.7500 Du        
  17406 ****        -6.0000  13.2500  29.0000 Du        
  17407 ****        -6.0000  13.2500  29.2500 Du        
  17408 ****        -6.0000  13.2500  29.5000 Du        
  17409 ****        -6.0000  13.2500  29.7500 Du        
  17410 ****        -6.0000  13.2500  30.0000 Du        
  17411 ****        -6.0000  13.2500  30.2500 Du        
  17412 ****        -6.0000  13.2500  30.5000 Du        
  17413 ****        -6.0000  13.2500  30.7500 Du        
  17414 ****        -6.0000  13.2500  31.0000 Du        
  17415 ****        -6.0000  13.2500  31.2500 Du        
  17416 ****        -6.0000  13.5000  28.2500 Du        
  17417 ****        -6.0000  13.5000  28.5000 Du        
  17418 ****        -6.0000  13.5000  28.7500 Du        
  17419 ****        -6.0000  13.5000  29.0000 Du        
  17420 ****        -6.0000  13.5000  29.2500 Du        
  17421 ****        -6.0000  13.5000  29.5000 Du        
  17422 ****        -6.0000  13.5000  29.7500 Du        
  17423 ****        -6.0000  13.5000  30.0000 Du        
  17424 ****        -6.0000  13.5000  30.2500 Du        
  17425 ****        -6.0000  13.5000  30.5000 Du        
  17426 ****        -6.0000  13.5000  30.7500 Du        
  17427 ****        -6.0000  13.5000  31.0000 Du        
  17428 ****        -6.0000  13.5000  31.2500 Du        
  17429 ****        -6.0000  13.5000  31.5000 Du        
  17430 ****        -6.0000  13.5000  31.7500 Du        
  17431 ****        -6.0000  13.7500  28.5000 Du        
  17432 ****        -6.0000  13.7500  28.7500 Du        
  17433 ****        -6.0000  13.7500  29.0000 Du        
  17434 ****        -6.0000  13.7500  29.2500 Du        
  17435 ****        -6.0000  13.7500  29.5000 Du        
  17436 ****        -6.0000  13.7500  29.7500 Du        
  17437 ****        -6.0000  13.7500  30.0000 Du        
  17438 ****        -6.0000  13.7500  30.2500 Du        
  17439 ****        -6.0000  13.7500  30.5000 Du        
  17440 ****        -6.0000  13.7500  30.7500 Du        
  17441 ****        -6.0000  13.7500  31.0000 Du        
  17442 ****        -6.0000  13.7500  31.2500 Du        
  17443 ****        -6.0000  13.7500  31.5000 Du        
  17444 ****        -6.0000  13.7500  31.7500 Du        
  17445 ****        -6.0000  14.0000  28.5000 Du        
  17446 ****        -6.0000  14.0000  28.7500 Du        
  17447 ****        -6.0000  14.0000  29.0000 Du        
  17448 ****        -6.0000  14.0000  29.2500 Du        
  17449 ****        -6.0000  14.0000  29.5000 Du        
  17450 ****        -6.0000  14.0000  29.7500 Du        
  17451 ****        -6.0000  14.0000  30.0000 Du        
  17452 ****        -6.0000  14.0000  30.2500 Du        
  17453 ****        -6.0000  14.0000  30.5000 Du        
  17454 ****        -6.0000  14.0000  30.7500 Du        
  17455 ****        -6.0000  14.0000  31.0000 Du        
  17456 ****        -6.0000  14.0000  31.2500 Du        
  17457 ****        -6.0000  14.0000  31.5000 Du        
  17458 ****        -6.0000  14.0000  31.7500 Du        
  17459 ****        -6.0000  14.2500  28.7500 Du        
  17460 ****        -6.0000  14.2500  29.0000 Du        
  17461 ****        -6.0000  14.2500  29.2500 Du        
  17462 ****        -6.0000  14.2500  29.5000 Du        
  17463 ****        -6.0000  14.2500  29.7500 Du        
  17464 ****        -6.0000  14.2500  30.0000 Du        
  17465 ****        -6.0000  14.2500  30.2500 Du        
  17466 ****        -6.0000  14.2500  30.5000 Du        
  17467 ****        -6.0000  14.2500  30.7500 Du        
  17468 ****        -6.0000  14.2500  31.0000 Du        
  17469 ****        -6.0000  14.2500  31.2500 Du        
  17470 ****        -6.0000  14.2500  31.5000 Du        
  17471 ****        -6.0000  14.2500  31.7500 Du        
  17472 ****        -6.0000  14.5000  28.7500 Du        
  17473 ****        -6.0000  14.5000  29.0000 Du        
  17474 ****        -6.0000  14.5000  29.2500 Du        
  17475 ****        -6.0000  14.5000  29.5000 Du        
  17476 ****        -6.0000  14.5000  29.7500 Du        
  17477 ****        -6.0000  14.5000  30.0000 Du        
  17478 ****        -6.0000  14.5000  30.2500 Du        
  17479 ****        -6.0000  14.5000  30.5000 Du        
  17480 ****        -6.0000  14.5000  30.7500 Du        
  17481 ****        -6.0000  14.5000  31.0000 Du        
  17482 ****        -6.0000  14.5000  31.2500 Du        
  17483 ****        -6.0000  14.5000  31.7500 Du        
  17484 ****        -6.0000  14.7500  28.7500 Du        
  17485 ****        -6.0000  14.7500  29.0000 Du        
  17486 ****        -6.0000  14.7500  29.2500 Du        
  17487 ****        -6.0000  14.7500  29.5000 Du        
  17488 ****        -6.0000  14.7500  29.7500 Du        
  17489 ****        -6.0000  14.7500  30.0000 Du        
  17490 ****        -6.0000  14.7500  30.2500 Du        
  17491 ****        -6.0000  15.0000  29.0000 Du        
  17492 ****        -6.0000  15.0000  29.2500 Du        
  17493 ****        -6.0000  15.0000  29.5000 Du        
  17494 ****        -6.0000  15.0000  29.7500 Du        
  17495 ****        -6.0000  15.0000  34.0000 Du        
  17496 ****        -6.0000  15.0000  34.2500 Du        
  17497 ****        -6.0000  15.0000  34.5000 Du        
  17498 ****        -6.0000  15.2500  29.0000 Du        
  17499 ****        -6.0000  15.2500  29.2500 Du        
  17500 ****        -6.0000  15.2500  33.2500 Du        
  17501 ****        -6.0000  15.2500  33.5000 Du        
  17502 ****        -6.0000  15.2500  33.7500 Du        
  17503 ****        -6.0000  15.2500  34.0000 Du        
  17504 ****        -6.0000  15.2500  34.2500 Du        
  17505 ****        -6.0000  15.5000  33.5000 Du        
  17506 ****        -6.0000  15.5000  33.7500 Du        
  17507 ****        -6.0000  15.5000  34.0000 Du        
  17508 ****        -5.7500 -21.2500  18.7500 Du        
  17509 ****        -5.7500 -21.2500  19.0000 Du        
  17510 ****        -5.7500 -21.0000  18.5000 Du        
  17511 ****        -5.7500 -21.0000  18.7500 Du        
  17512 ****        -5.7500 -21.0000  19.0000 Du        
  17513 ****        -5.7500 -21.0000  19.2500 Du        
  17514 ****        -5.7500 -20.7500  18.5000 Du        
  17515 ****        -5.7500 -20.7500  18.7500 Du        
  17516 ****        -5.7500 -20.7500  19.0000 Du        
  17517 ****        -5.7500 -20.7500  19.2500 Du        
  17518 ****        -5.7500 -20.5000  18.5000 Du        
  17519 ****        -5.7500 -20.5000  18.7500 Du        
  17520 ****        -5.7500 -20.5000  19.0000 Du        
  17521 ****        -5.7500 -20.5000  19.2500 Du        
  17522 ****        -5.7500 -20.2500  18.5000 Du        
  17523 ****        -5.7500 -20.2500  18.7500 Du        
  17524 ****        -5.7500 -20.2500  19.0000 Du        
  17525 ****        -5.7500 -20.2500  19.2500 Du        
  17526 ****        -5.7500 -20.2500  19.5000 Du        
  17527 ****        -5.7500 -20.0000  18.5000 Du        
  17528 ****        -5.7500 -20.0000  18.7500 Du        
  17529 ****        -5.7500 -20.0000  19.0000 Du        
  17530 ****        -5.7500 -20.0000  19.2500 Du        
  17531 ****        -5.7500 -20.0000  19.5000 Du        
  17532 ****        -5.7500 -19.7500  18.7500 Du        
  17533 ****        -5.7500 -19.7500  19.0000 Du        
  17534 ****        -5.7500 -19.7500  19.2500 Du        
  17535 ****        -5.7500 -19.7500  19.5000 Du        
  17536 ****        -5.7500 -19.5000  18.7500 Du        
  17537 ****        -5.7500 -19.5000  19.0000 Du        
  17538 ****        -5.7500 -19.5000  19.2500 Du        
  17539 ****        -5.7500 -19.5000  19.5000 Du        
  17540 ****        -5.7500 -19.5000  19.7500 Du        
  17541 ****        -5.7500 -19.2500  18.7500 Du        
  17542 ****        -5.7500 -19.2500  19.0000 Du        
  17543 ****        -5.7500 -19.2500  19.2500 Du        
  17544 ****        -5.7500 -19.2500  19.5000 Du        
  17545 ****        -5.7500 -19.2500  19.7500 Du        
  17546 ****        -5.7500 -19.2500  20.0000 Du        
  17547 ****        -5.7500 -19.0000  18.5000 Du        
  17548 ****        -5.7500 -19.0000  18.7500 Du        
  17549 ****        -5.7500 -19.0000  19.0000 Du        
  17550 ****        -5.7500 -19.0000  19.2500 Du        
  17551 ****        -5.7500 -19.0000  19.5000 Du        
  17552 ****        -5.7500 -19.0000  19.7500 Du        
  17553 ****        -5.7500 -19.0000  20.0000 Du        
  17554 ****        -5.7500 -18.7500  18.5000 Du        
  17555 ****        -5.7500 -18.7500  18.7500 Du        
  17556 ****        -5.7500 -18.7500  19.0000 Du        
  17557 ****        -5.7500 -18.7500  19.2500 Du        
  17558 ****        -5.7500 -18.7500  19.5000 Du        
  17559 ****        -5.7500 -18.7500  19.7500 Du        
  17560 ****        -5.7500 -18.7500  20.0000 Du        
  17561 ****        -5.7500 -18.7500  20.2500 Du        
  17562 ****        -5.7500 -18.5000  18.5000 Du        
  17563 ****        -5.7500 -18.5000  18.7500 Du        
  17564 ****        -5.7500 -18.5000  19.0000 Du        
  17565 ****        -5.7500 -18.5000  19.2500 Du        
  17566 ****        -5.7500 -18.5000  19.5000 Du        
  17567 ****        -5.7500 -18.5000  19.7500 Du        
  17568 ****        -5.7500 -18.5000  20.0000 Du        
  17569 ****        -5.7500 -18.5000  20.2500 Du        
  17570 ****        -5.7500 -18.2500  18.5000 Du        
  17571 ****        -5.7500 -18.2500  18.7500 Du        
  17572 ****        -5.7500 -18.2500  19.0000 Du        
  17573 ****        -5.7500 -18.2500  19.2500 Du        
  17574 ****        -5.7500 -18.2500  19.5000 Du        
  17575 ****        -5.7500 -18.2500  19.7500 Du        
  17576 ****        -5.7500 -18.2500  20.0000 Du        
  17577 ****        -5.7500 -18.2500  20.2500 Du        
  17578 ****        -5.7500 -18.2500  23.0000 Du        
  17579 ****        -5.7500 -18.2500  23.2500 Du        
  17580 ****        -5.7500 -18.2500  23.5000 Du        
  17581 ****        -5.7500 -18.2500  23.7500 Du        
  17582 ****        -5.7500 -18.0000  18.2500 Du        
  17583 ****        -5.7500 -18.0000  18.5000 Du        
  17584 ****        -5.7500 -18.0000  18.7500 Du        
  17585 ****        -5.7500 -18.0000  19.0000 Du        
  17586 ****        -5.7500 -18.0000  19.2500 Du        
  17587 ****        -5.7500 -18.0000  19.5000 Du        
  17588 ****        -5.7500 -18.0000  19.7500 Du        
  17589 ****        -5.7500 -18.0000  20.0000 Du        
  17590 ****        -5.7500 -18.0000  20.2500 Du        
  17591 ****        -5.7500 -18.0000  20.5000 Du        
  17592 ****        -5.7500 -18.0000  22.7500 Du        
  17593 ****        -5.7500 -18.0000  23.0000 Du        
  17594 ****        -5.7500 -18.0000  23.2500 Du        
  17595 ****        -5.7500 -18.0000  23.5000 Du        
  17596 ****        -5.7500 -18.0000  23.7500 Du        
  17597 ****        -5.7500 -17.7500  18.2500 Du        
  17598 ****        -5.7500 -17.7500  18.5000 Du        
  17599 ****        -5.7500 -17.7500  18.7500 Du        
  17600 ****        -5.7500 -17.7500  19.0000 Du        
  17601 ****        -5.7500 -17.7500  19.2500 Du        
  17602 ****        -5.7500 -17.7500  19.5000 Du        
  17603 ****        -5.7500 -17.7500  19.7500 Du        
  17604 ****        -5.7500 -17.7500  20.0000 Du        
  17605 ****        -5.7500 -17.7500  20.2500 Du        
  17606 ****        -5.7500 -17.7500  22.5000 Du        
  17607 ****        -5.7500 -17.7500  22.7500 Du        
  17608 ****        -5.7500 -17.7500  23.0000 Du        
  17609 ****        -5.7500 -17.7500  23.2500 Du        
  17610 ****        -5.7500 -17.7500  23.5000 Du        
  17611 ****        -5.7500 -17.7500  23.7500 Du        
  17612 ****        -5.7500 -17.5000  18.2500 Du        
  17613 ****        -5.7500 -17.5000  18.5000 Du        
  17614 ****        -5.7500 -17.5000  18.7500 Du        
  17615 ****        -5.7500 -17.5000  19.0000 Du        
  17616 ****        -5.7500 -17.5000  19.2500 Du        
  17617 ****        -5.7500 -17.5000  19.5000 Du        
  17618 ****        -5.7500 -17.5000  19.7500 Du        
  17619 ****        -5.7500 -17.5000  20.0000 Du        
  17620 ****        -5.7500 -17.5000  20.2500 Du        
  17621 ****        -5.7500 -17.5000  20.5000 Du        
  17622 ****        -5.7500 -17.5000  22.7500 Du        
  17623 ****        -5.7500 -17.5000  23.0000 Du        
  17624 ****        -5.7500 -17.5000  23.2500 Du        
  17625 ****        -5.7500 -17.5000  23.5000 Du        
  17626 ****        -5.7500 -17.2500  18.2500 Du        
  17627 ****        -5.7500 -17.2500  18.5000 Du        
  17628 ****        -5.7500 -17.2500  18.7500 Du        
  17629 ****        -5.7500 -17.2500  19.0000 Du        
  17630 ****        -5.7500 -17.2500  19.2500 Du        
  17631 ****        -5.7500 -17.2500  19.5000 Du        
  17632 ****        -5.7500 -17.2500  19.7500 Du        
  17633 ****        -5.7500 -17.2500  20.0000 Du        
  17634 ****        -5.7500 -17.2500  20.2500 Du        
  17635 ****        -5.7500 -17.2500  20.5000 Du        
  17636 ****        -5.7500 -17.2500  22.5000 Du        
  17637 ****        -5.7500 -17.2500  22.7500 Du        
  17638 ****        -5.7500 -17.2500  23.0000 Du        
  17639 ****        -5.7500 -17.2500  23.2500 Du        
  17640 ****        -5.7500 -17.2500  23.5000 Du        
  17641 ****        -5.7500 -17.2500  23.7500 Du        
  17642 ****        -5.7500 -17.0000  18.0000 Du        
  17643 ****        -5.7500 -17.0000  18.2500 Du        
  17644 ****        -5.7500 -17.0000  18.5000 Du        
  17645 ****        -5.7500 -17.0000  18.7500 Du        
  17646 ****        -5.7500 -17.0000  19.0000 Du        
  17647 ****        -5.7500 -17.0000  19.2500 Du        
  17648 ****        -5.7500 -17.0000  19.5000 Du        
  17649 ****        -5.7500 -17.0000  19.7500 Du        
  17650 ****        -5.7500 -17.0000  20.0000 Du        
  17651 ****        -5.7500 -17.0000  20.2500 Du        
  17652 ****        -5.7500 -17.0000  22.5000 Du        
  17653 ****        -5.7500 -17.0000  22.7500 Du        
  17654 ****        -5.7500 -17.0000  23.0000 Du        
  17655 ****        -5.7500 -17.0000  23.2500 Du        
  17656 ****        -5.7500 -17.0000  23.5000 Du        
  17657 ****        -5.7500 -17.0000  23.7500 Du        
  17658 ****        -5.7500 -16.7500  17.7500 Du        
  17659 ****        -5.7500 -16.7500  18.0000 Du        
  17660 ****        -5.7500 -16.7500  18.2500 Du        
  17661 ****        -5.7500 -16.7500  18.5000 Du        
  17662 ****        -5.7500 -16.7500  18.7500 Du        
  17663 ****        -5.7500 -16.7500  19.0000 Du        
  17664 ****        -5.7500 -16.7500  19.2500 Du        
  17665 ****        -5.7500 -16.7500  19.5000 Du        
  17666 ****        -5.7500 -16.7500  19.7500 Du        
  17667 ****        -5.7500 -16.7500  20.0000 Du        
  17668 ****        -5.7500 -16.7500  22.7500 Du        
  17669 ****        -5.7500 -16.7500  23.0000 Du        
  17670 ****        -5.7500 -16.7500  23.2500 Du        
  17671 ****        -5.7500 -16.7500  23.5000 Du        
  17672 ****        -5.7500 -16.5000  17.7500 Du        
  17673 ****        -5.7500 -16.5000  18.0000 Du        
  17674 ****        -5.7500 -16.5000  18.2500 Du        
  17675 ****        -5.7500 -16.5000  18.5000 Du        
  17676 ****        -5.7500 -16.5000  18.7500 Du        
  17677 ****        -5.7500 -16.5000  19.0000 Du        
  17678 ****        -5.7500 -16.5000  19.2500 Du        
  17679 ****        -5.7500 -16.5000  19.5000 Du        
  17680 ****        -5.7500 -16.5000  19.7500 Du        
  17681 ****        -5.7500 -16.2500  17.5000 Du        
  17682 ****        -5.7500 -16.2500  17.7500 Du        
  17683 ****        -5.7500 -16.2500  18.0000 Du        
  17684 ****        -5.7500 -16.2500  18.2500 Du        
  17685 ****        -5.7500 -16.2500  18.5000 Du        
  17686 ****        -5.7500 -16.2500  18.7500 Du        
  17687 ****        -5.7500 -16.2500  19.0000 Du        
  17688 ****        -5.7500 -16.2500  19.2500 Du        
  17689 ****        -5.7500 -16.2500  19.5000 Du        
  17690 ****        -5.7500 -16.2500  19.7500 Du        
  17691 ****        -5.7500 -16.2500  20.0000 Du        
  17692 ****        -5.7500 -16.0000  17.2500 Du        
  17693 ****        -5.7500 -16.0000  17.5000 Du        
  17694 ****        -5.7500 -16.0000  17.7500 Du        
  17695 ****        -5.7500 -16.0000  18.0000 Du        
  17696 ****        -5.7500 -16.0000  18.2500 Du        
  17697 ****        -5.7500 -16.0000  18.5000 Du        
  17698 ****        -5.7500 -16.0000  18.7500 Du        
  17699 ****        -5.7500 -16.0000  19.0000 Du        
  17700 ****        -5.7500 -16.0000  19.2500 Du        
  17701 ****        -5.7500 -16.0000  19.5000 Du        
  17702 ****        -5.7500 -16.0000  19.7500 Du        
  17703 ****        -5.7500 -15.7500  17.2500 Du        
  17704 ****        -5.7500 -15.7500  17.5000 Du        
  17705 ****        -5.7500 -15.7500  17.7500 Du        
  17706 ****        -5.7500 -15.7500  18.0000 Du        
  17707 ****        -5.7500 -15.7500  18.2500 Du        
  17708 ****        -5.7500 -15.7500  18.5000 Du        
  17709 ****        -5.7500 -15.7500  18.7500 Du        
  17710 ****        -5.7500 -15.7500  19.0000 Du        
  17711 ****        -5.7500 -15.7500  19.2500 Du        
  17712 ****        -5.7500 -15.7500  19.5000 Du        
  17713 ****        -5.7500 -15.7500  19.7500 Du        
  17714 ****        -5.7500 -15.7500  20.0000 Du        
  17715 ****        -5.7500 -15.5000  17.2500 Du        
  17716 ****        -5.7500 -15.5000  17.5000 Du        
  17717 ****        -5.7500 -15.5000  17.7500 Du        
  17718 ****        -5.7500 -15.5000  18.0000 Du        
  17719 ****        -5.7500 -15.5000  18.2500 Du        
  17720 ****        -5.7500 -15.5000  18.5000 Du        
  17721 ****        -5.7500 -15.5000  18.7500 Du        
  17722 ****        -5.7500 -15.5000  19.0000 Du        
  17723 ****        -5.7500 -15.5000  19.2500 Du        
  17724 ****        -5.7500 -15.5000  19.5000 Du        
  17725 ****        -5.7500 -15.2500  17.5000 Du        
  17726 ****        -5.7500 -15.2500  17.7500 Du        
  17727 ****        -5.7500 -15.2500  18.0000 Du        
  17728 ****        -5.7500 -15.2500  18.2500 Du        
  17729 ****        -5.7500 -15.2500  18.5000 Du        
  17730 ****        -5.7500 -15.2500  18.7500 Du        
  17731 ****        -5.7500 -15.2500  19.0000 Du        
  17732 ****        -5.7500 -15.2500  19.2500 Du        
  17733 ****        -5.7500 -15.2500  19.5000 Du        
  17734 ****        -5.7500 -15.2500  19.7500 Du        
  17735 ****        -5.7500 -15.0000  17.5000 Du        
  17736 ****        -5.7500 -15.0000  17.7500 Du        
  17737 ****        -5.7500 -15.0000  18.0000 Du        
  17738 ****        -5.7500 -15.0000  18.2500 Du        
  17739 ****        -5.7500 -15.0000  18.5000 Du        
  17740 ****        -5.7500 -15.0000  18.7500 Du        
  17741 ****        -5.7500 -15.0000  19.0000 Du        
  17742 ****        -5.7500 -15.0000  19.2500 Du        
  17743 ****        -5.7500 -15.0000  19.5000 Du        
  17744 ****        -5.7500 -15.0000  19.7500 Du        
  17745 ****        -5.7500  -8.7500  21.2500 Du        
  17746 ****        -5.7500  -8.5000  20.7500 Du        
  17747 ****        -5.7500  -8.5000  21.0000 Du        
  17748 ****        -5.7500  -8.5000  21.2500 Du        
  17749 ****        -5.7500  -8.2500  20.7500 Du        
  17750 ****        -5.7500  -8.2500  21.0000 Du        
  17751 ****        -5.7500  -8.2500  21.2500 Du        
  17752 ****        -5.7500  -8.2500  21.5000 Du        
  17753 ****        -5.7500  -8.0000  20.7500 Du        
  17754 ****        -5.7500  -8.0000  21.0000 Du        
  17755 ****        -5.7500  -8.0000  21.2500 Du        
  17756 ****        -5.7500  -8.0000  21.5000 Du        
  17757 ****        -5.7500  -8.0000  21.7500 Du        
  17758 ****        -5.7500  -7.7500  20.7500 Du        
  17759 ****        -5.7500  -7.7500  21.0000 Du        
  17760 ****        -5.7500  -7.7500  21.2500 Du        
  17761 ****        -5.7500  -7.7500  21.5000 Du        
  17762 ****        -5.7500  -7.7500  21.7500 Du        
  17763 ****        -5.7500  -1.5000  20.7500 Du        
  17764 ****        -5.7500  -1.5000  21.0000 Du        
  17765 ****        -5.7500  -1.5000  21.2500 Du        
  17766 ****        -5.7500  -1.2500  20.0000 Du        
  17767 ****        -5.7500  -1.2500  20.2500 Du        
  17768 ****        -5.7500  -1.2500  20.5000 Du        
  17769 ****        -5.7500  -1.2500  20.7500 Du        
  17770 ****        -5.7500  -1.2500  21.0000 Du        
  17771 ****        -5.7500  -1.2500  21.2500 Du        
  17772 ****        -5.7500  -1.2500  21.5000 Du        
  17773 ****        -5.7500  -1.2500  21.7500 Du        
  17774 ****        -5.7500  -1.0000  19.7500 Du        
  17775 ****        -5.7500  -1.0000  20.0000 Du        
  17776 ****        -5.7500  -1.0000  20.2500 Du        
  17777 ****        -5.7500  -1.0000  20.5000 Du        
  17778 ****        -5.7500  -1.0000  20.7500 Du        
  17779 ****        -5.7500  -1.0000  21.0000 Du        
  17780 ****        -5.7500  -1.0000  21.2500 Du        
  17781 ****        -5.7500  -1.0000  21.5000 Du        
  17782 ****        -5.7500  -0.7500  20.0000 Du        
  17783 ****        -5.7500  -0.7500  20.2500 Du        
  17784 ****        -5.7500  -0.7500  20.5000 Du        
  17785 ****        -5.7500  -0.7500  20.7500 Du        
  17786 ****        -5.7500  -0.7500  21.0000 Du        
  17787 ****        -5.7500  -0.7500  21.2500 Du        
  17788 ****        -5.7500  -0.5000  20.0000 Du        
  17789 ****        -5.7500  -0.5000  20.2500 Du        
  17790 ****        -5.7500  -0.5000  20.5000 Du        
  17791 ****        -5.7500  -0.5000  20.7500 Du        
  17792 ****        -5.7500  -0.5000  21.0000 Du        
  17793 ****        -5.7500  -0.5000  21.2500 Du        
  17794 ****        -5.7500  -0.2500  20.2500 Du        
  17795 ****        -5.7500  -0.2500  20.5000 Du        
  17796 ****        -5.7500  -0.2500  20.7500 Du        
  17797 ****        -5.7500   5.0000  10.0000 Du        
  17798 ****        -5.7500   5.0000  10.2500 Du        
  17799 ****        -5.7500   5.2500  10.0000 Du        
  17800 ****        -5.7500   5.2500  10.2500 Du        
  17801 ****        -5.7500   5.2500  10.5000 Du        
  17802 ****        -5.7500   5.2500  10.7500 Du        
  17803 ****        -5.7500   5.5000  10.0000 Du        
  17804 ****        -5.7500   5.5000  10.2500 Du        
  17805 ****        -5.7500   5.5000  10.5000 Du        
  17806 ****        -5.7500   5.5000  10.7500 Du        
  17807 ****        -5.7500   5.7500  10.0000 Du        
  17808 ****        -5.7500   5.7500  10.2500 Du        
  17809 ****        -5.7500   5.7500  10.5000 Du        
  17810 ****        -5.7500   5.7500  10.7500 Du        
  17811 ****        -5.7500   5.7500  11.0000 Du        
  17812 ****        -5.7500   6.0000  10.0000 Du        
  17813 ****        -5.7500   6.0000  10.2500 Du        
  17814 ****        -5.7500   6.0000  10.5000 Du        
  17815 ****        -5.7500   6.0000  10.7500 Du        
  17816 ****        -5.7500   6.0000  11.0000 Du        
  17817 ****        -5.7500   6.2500  10.0000 Du        
  17818 ****        -5.7500   6.2500  10.2500 Du        
  17819 ****        -5.7500   6.2500  10.5000 Du        
  17820 ****        -5.7500   6.2500  10.7500 Du        
  17821 ****        -5.7500   6.2500  11.0000 Du        
  17822 ****        -5.7500   6.5000  10.0000 Du        
  17823 ****        -5.7500   6.5000  10.2500 Du        
  17824 ****        -5.7500   6.5000  10.5000 Du        
  17825 ****        -5.7500   6.5000  10.7500 Du        
  17826 ****        -5.7500   6.5000  11.0000 Du        
  17827 ****        -5.7500   6.7500  10.0000 Du        
  17828 ****        -5.7500   6.7500  10.2500 Du        
  17829 ****        -5.7500   6.7500  10.5000 Du        
  17830 ****        -5.7500   6.7500  10.7500 Du        
  17831 ****        -5.7500   6.7500  11.0000 Du        
  17832 ****        -5.7500   6.7500  11.2500 Du        
  17833 ****        -5.7500   7.0000  10.0000 Du        
  17834 ****        -5.7500   7.0000  10.2500 Du        
  17835 ****        -5.7500   7.0000  10.5000 Du        
  17836 ****        -5.7500   7.0000  10.7500 Du        
  17837 ****        -5.7500   7.0000  11.0000 Du        
  17838 ****        -5.7500   7.0000  11.2500 Du        
  17839 ****        -5.7500   7.2500  10.2500 Du        
  17840 ****        -5.7500   7.2500  10.5000 Du        
  17841 ****        -5.7500   7.2500  10.7500 Du        
  17842 ****        -5.7500   7.2500  11.0000 Du        
  17843 ****        -5.7500  11.7500  27.7500 Du        
  17844 ****        -5.7500  11.7500  28.0000 Du        
  17845 ****        -5.7500  11.7500  28.2500 Du        
  17846 ****        -5.7500  11.7500  28.5000 Du        
  17847 ****        -5.7500  11.7500  28.7500 Du        
  17848 ****        -5.7500  12.0000  27.5000 Du        
  17849 ****        -5.7500  12.0000  27.7500 Du        
  17850 ****        -5.7500  12.0000  28.0000 Du        
  17851 ****        -5.7500  12.0000  28.2500 Du        
  17852 ****        -5.7500  12.0000  28.5000 Du        
  17853 ****        -5.7500  12.0000  28.7500 Du        
  17854 ****        -5.7500  12.0000  29.0000 Du        
  17855 ****        -5.7500  12.0000  29.2500 Du        
  17856 ****        -5.7500  12.2500  27.5000 Du        
  17857 ****        -5.7500  12.2500  27.7500 Du        
  17858 ****        -5.7500  12.2500  28.0000 Du        
  17859 ****        -5.7500  12.2500  28.2500 Du        
  17860 ****        -5.7500  12.2500  28.5000 Du        
  17861 ****        -5.7500  12.2500  28.7500 Du        
  17862 ****        -5.7500  12.2500  29.0000 Du        
  17863 ****        -5.7500  12.2500  29.2500 Du        
  17864 ****        -5.7500  12.2500  29.5000 Du        
  17865 ****        -5.7500  12.2500  29.7500 Du        
  17866 ****        -5.7500  12.2500  30.0000 Du        
  17867 ****        -5.7500  12.2500  30.2500 Du        
  17868 ****        -5.7500  12.5000  27.5000 Du        
  17869 ****        -5.7500  12.5000  27.7500 Du        
  17870 ****        -5.7500  12.5000  28.0000 Du        
  17871 ****        -5.7500  12.5000  28.2500 Du        
  17872 ****        -5.7500  12.5000  28.5000 Du        
  17873 ****        -5.7500  12.5000  28.7500 Du        
  17874 ****        -5.7500  12.5000  29.0000 Du        
  17875 ****        -5.7500  12.5000  29.2500 Du        
  17876 ****        -5.7500  12.5000  29.5000 Du        
  17877 ****        -5.7500  12.5000  29.7500 Du        
  17878 ****        -5.7500  12.5000  30.0000 Du        
  17879 ****        -5.7500  12.5000  30.2500 Du        
  17880 ****        -5.7500  12.5000  30.5000 Du        
  17881 ****        -5.7500  12.5000  30.7500 Du        
  17882 ****        -5.7500  12.5000  31.0000 Du        
  17883 ****        -5.7500  12.7500  27.7500 Du        
  17884 ****        -5.7500  12.7500  28.0000 Du        
  17885 ****        -5.7500  12.7500  28.2500 Du        
  17886 ****        -5.7500  12.7500  28.5000 Du        
  17887 ****        -5.7500  12.7500  28.7500 Du        
  17888 ****        -5.7500  12.7500  29.0000 Du        
  17889 ****        -5.7500  12.7500  29.2500 Du        
  17890 ****        -5.7500  12.7500  29.5000 Du        
  17891 ****        -5.7500  12.7500  29.7500 Du        
  17892 ****        -5.7500  12.7500  30.0000 Du        
  17893 ****        -5.7500  12.7500  30.2500 Du        
  17894 ****        -5.7500  12.7500  30.5000 Du        
  17895 ****        -5.7500  12.7500  30.7500 Du        
  17896 ****        -5.7500  12.7500  31.0000 Du        
  17897 ****        -5.7500  13.0000  27.7500 Du        
  17898 ****        -5.7500  13.0000  28.0000 Du        
  17899 ****        -5.7500  13.0000  28.2500 Du        
  17900 ****        -5.7500  13.0000  28.5000 Du        
  17901 ****        -5.7500  13.0000  28.7500 Du        
  17902 ****        -5.7500  13.0000  29.0000 Du        
  17903 ****        -5.7500  13.0000  29.2500 Du        
  17904 ****        -5.7500  13.0000  29.5000 Du        
  17905 ****        -5.7500  13.0000  29.7500 Du        
  17906 ****        -5.7500  13.0000  30.0000 Du        
  17907 ****        -5.7500  13.0000  30.2500 Du        
  17908 ****        -5.7500  13.0000  30.5000 Du        
  17909 ****        -5.7500  13.0000  30.7500 Du        
  17910 ****        -5.7500  13.0000  31.0000 Du        
  17911 ****        -5.7500  13.2500  28.0000 Du        
  17912 ****        -5.7500  13.2500  28.2500 Du        
  17913 ****        -5.7500  13.2500  28.5000 Du        
  17914 ****        -5.7500  13.2500  28.7500 Du        
  17915 ****        -5.7500  13.2500  29.0000 Du        
  17916 ****        -5.7500  13.2500  29.2500 Du        
  17917 ****        -5.7500  13.2500  29.5000 Du        
  17918 ****        -5.7500  13.2500  29.7500 Du        
  17919 ****        -5.7500  13.2500  30.0000 Du        
  17920 ****        -5.7500  13.2500  30.2500 Du        
  17921 ****        -5.7500  13.2500  30.5000 Du        
  17922 ****        -5.7500  13.5000  28.2500 Du        
  17923 ****        -5.7500  13.5000  28.5000 Du        
  17924 ****        -5.7500  13.5000  28.7500 Du        
  17925 ****        -5.7500  13.5000  29.0000 Du        
  17926 ****        -5.7500  13.5000  29.2500 Du        
  17927 ****        -5.7500  13.5000  29.5000 Du        
  17928 ****        -5.7500  13.5000  29.7500 Du        
  17929 ****        -5.7500  13.5000  30.0000 Du        
  17930 ****        -5.7500  13.5000  30.2500 Du        
  17931 ****        -5.7500  13.7500  28.5000 Du        
  17932 ****        -5.7500  13.7500  28.7500 Du        
  17933 ****        -5.7500  13.7500  29.0000 Du        
  17934 ****        -5.7500  13.7500  29.2500 Du        
  17935 ****        -5.7500  13.7500  29.5000 Du        
  17936 ****        -5.7500  13.7500  29.7500 Du        
  17937 ****        -5.7500  13.7500  30.0000 Du        
  17938 ****        -5.7500  13.7500  30.2500 Du        
  17939 ****        -5.7500  14.0000  28.7500 Du        
  17940 ****        -5.7500  14.0000  29.0000 Du        
  17941 ****        -5.7500  14.0000  29.2500 Du        
  17942 ****        -5.7500  14.0000  29.5000 Du        
  17943 ****        -5.7500  14.0000  29.7500 Du        
  17944 ****        -5.7500  14.0000  30.0000 Du        
  17945 ****        -5.7500  14.0000  30.2500 Du        
  17946 ****        -5.7500  14.2500  28.7500 Du        
  17947 ****        -5.7500  14.2500  29.0000 Du        
  17948 ****        -5.7500  14.2500  29.2500 Du        
  17949 ****        -5.7500  14.2500  29.5000 Du        
  17950 ****        -5.7500  14.2500  29.7500 Du        
  17951 ****        -5.7500  14.2500  30.0000 Du        
  17952 ****        -5.7500  14.2500  30.2500 Du        
  17953 ****        -5.7500  14.5000  29.0000 Du        
  17954 ****        -5.7500  14.5000  29.2500 Du        
  17955 ****        -5.7500  14.5000  29.5000 Du        
  17956 ****        -5.7500  14.5000  29.7500 Du        
  17957 ****        -5.7500  14.5000  30.0000 Du        
  17958 ****        -5.7500  14.7500  29.0000 Du        
  17959 ****        -5.7500  14.7500  29.2500 Du        
  17960 ****        -5.7500  14.7500  29.5000 Du        
  17961 ****        -5.7500  14.7500  29.7500 Du        
  17962 ****        -5.7500  15.0000  29.2500 Du        
  17963 ****        -5.5000 -21.0000  19.0000 Du        
  17964 ****        -5.5000 -20.7500  18.5000 Du        
  17965 ****        -5.5000 -20.7500  18.7500 Du        
  17966 ****        -5.5000 -20.7500  19.0000 Du        
  17967 ****        -5.5000 -20.7500  19.2500 Du        
  17968 ****        -5.5000 -20.5000  18.2500 Du        
  17969 ****        -5.5000 -20.5000  18.5000 Du        
  17970 ****        -5.5000 -20.5000  18.7500 Du        
  17971 ****        -5.5000 -20.5000  19.0000 Du        
  17972 ****        -5.5000 -20.5000  19.2500 Du        
  17973 ****        -5.5000 -20.2500  18.2500 Du        
  17974 ****        -5.5000 -20.2500  18.5000 Du        
  17975 ****        -5.5000 -20.2500  18.7500 Du        
  17976 ****        -5.5000 -20.2500  19.0000 Du        
  17977 ****        -5.5000 -20.2500  19.2500 Du        
  17978 ****        -5.5000 -20.0000  18.5000 Du        
  17979 ****        -5.5000 -20.0000  18.7500 Du        
  17980 ****        -5.5000 -20.0000  19.0000 Du        
  17981 ****        -5.5000 -20.0000  19.2500 Du        
  17982 ****        -5.5000 -20.0000  19.5000 Du        
  17983 ****        -5.5000 -19.7500  18.5000 Du        
  17984 ****        -5.5000 -19.7500  18.7500 Du        
  17985 ****        -5.5000 -19.7500  19.0000 Du        
  17986 ****        -5.5000 -19.7500  19.2500 Du        
  17987 ****        -5.5000 -19.7500  19.5000 Du        
  17988 ****        -5.5000 -19.5000  18.5000 Du        
  17989 ****        -5.5000 -19.5000  18.7500 Du        
  17990 ****        -5.5000 -19.5000  19.0000 Du        
  17991 ****        -5.5000 -19.5000  19.2500 Du        
  17992 ****        -5.5000 -19.5000  19.5000 Du        
  17993 ****        -5.5000 -19.5000  19.7500 Du        
  17994 ****        -5.5000 -19.2500  18.5000 Du        
  17995 ****        -5.5000 -19.2500  18.7500 Du        
  17996 ****        -5.5000 -19.2500  19.0000 Du        
  17997 ****        -5.5000 -19.2500  19.2500 Du        
  17998 ****        -5.5000 -19.2500  19.5000 Du        
  17999 ****        -5.5000 -19.2500  19.7500 Du        
  18000 ****        -5.5000 -19.0000  18.5000 Du        
  18001 ****        -5.5000 -19.0000  18.7500 Du        
  18002 ****        -5.5000 -19.0000  19.0000 Du        
  18003 ****        -5.5000 -19.0000  19.2500 Du        
  18004 ****        -5.5000 -19.0000  19.5000 Du        
  18005 ****        -5.5000 -19.0000  19.7500 Du        
  18006 ****        -5.5000 -18.7500  18.2500 Du        
  18007 ****        -5.5000 -18.7500  18.5000 Du        
  18008 ****        -5.5000 -18.7500  18.7500 Du        
  18009 ****        -5.5000 -18.7500  19.0000 Du        
  18010 ****        -5.5000 -18.7500  19.2500 Du        
  18011 ****        -5.5000 -18.7500  19.5000 Du        
  18012 ****        -5.5000 -18.7500  19.7500 Du        
  18013 ****        -5.5000 -18.7500  20.0000 Du        
  18014 ****        -5.5000 -18.5000  18.2500 Du        
  18015 ****        -5.5000 -18.5000  18.5000 Du        
  18016 ****        -5.5000 -18.5000  18.7500 Du        
  18017 ****        -5.5000 -18.5000  19.0000 Du        
  18018 ****        -5.5000 -18.5000  19.2500 Du        
  18019 ****        -5.5000 -18.5000  19.5000 Du        
  18020 ****        -5.5000 -18.5000  19.7500 Du        
  18021 ****        -5.5000 -18.5000  23.2500 Du        
  18022 ****        -5.5000 -18.5000  23.5000 Du        
  18023 ****        -5.5000 -18.5000  23.7500 Du        
  18024 ****        -5.5000 -18.2500  18.2500 Du        
  18025 ****        -5.5000 -18.2500  18.5000 Du        
  18026 ****        -5.5000 -18.2500  18.7500 Du        
  18027 ****        -5.5000 -18.2500  19.0000 Du        
  18028 ****        -5.5000 -18.2500  19.2500 Du        
  18029 ****        -5.5000 -18.2500  19.5000 Du        
  18030 ****        -5.5000 -18.2500  19.7500 Du        
  18031 ****        -5.5000 -18.2500  22.7500 Du        
  18032 ****        -5.5000 -18.2500  23.0000 Du        
  18033 ****        -5.5000 -18.2500  23.2500 Du        
  18034 ****        -5.5000 -18.2500  23.5000 Du        
  18035 ****        -5.5000 -18.2500  23.7500 Du        
  18036 ****        -5.5000 -18.0000  18.2500 Du        
  18037 ****        -5.5000 -18.0000  18.5000 Du        
  18038 ****        -5.5000 -18.0000  18.7500 Du        
  18039 ****        -5.5000 -18.0000  19.0000 Du        
  18040 ****        -5.5000 -18.0000  19.2500 Du        
  18041 ****        -5.5000 -18.0000  19.5000 Du        
  18042 ****        -5.5000 -18.0000  22.2500 Du        
  18043 ****        -5.5000 -18.0000  22.5000 Du        
  18044 ****        -5.5000 -18.0000  22.7500 Du        
  18045 ****        -5.5000 -18.0000  23.0000 Du        
  18046 ****        -5.5000 -18.0000  23.2500 Du        
  18047 ****        -5.5000 -18.0000  23.5000 Du        
  18048 ****        -5.5000 -18.0000  23.7500 Du        
  18049 ****        -5.5000 -17.7500  18.2500 Du        
  18050 ****        -5.5000 -17.7500  18.5000 Du        
  18051 ****        -5.5000 -17.7500  18.7500 Du        
  18052 ****        -5.5000 -17.7500  19.0000 Du        
  18053 ****        -5.5000 -17.7500  19.2500 Du        
  18054 ****        -5.5000 -17.7500  19.5000 Du        
  18055 ****        -5.5000 -17.7500  22.0000 Du        
  18056 ****        -5.5000 -17.7500  22.2500 Du        
  18057 ****        -5.5000 -17.7500  22.5000 Du        
  18058 ****        -5.5000 -17.7500  22.7500 Du        
  18059 ****        -5.5000 -17.7500  23.0000 Du        
  18060 ****        -5.5000 -17.7500  23.2500 Du        
  18061 ****        -5.5000 -17.7500  23.5000 Du        
  18062 ****        -5.5000 -17.7500  23.7500 Du        
  18063 ****        -5.5000 -17.5000  18.0000 Du        
  18064 ****        -5.5000 -17.5000  18.2500 Du        
  18065 ****        -5.5000 -17.5000  18.5000 Du        
  18066 ****        -5.5000 -17.5000  18.7500 Du        
  18067 ****        -5.5000 -17.5000  19.0000 Du        
  18068 ****        -5.5000 -17.5000  19.2500 Du        
  18069 ****        -5.5000 -17.5000  19.5000 Du        
  18070 ****        -5.5000 -17.5000  22.2500 Du        
  18071 ****        -5.5000 -17.5000  22.5000 Du        
  18072 ****        -5.5000 -17.5000  22.7500 Du        
  18073 ****        -5.5000 -17.5000  23.0000 Du        
  18074 ****        -5.5000 -17.5000  23.2500 Du        
  18075 ****        -5.5000 -17.5000  23.5000 Du        
  18076 ****        -5.5000 -17.5000  23.7500 Du        
  18077 ****        -5.5000 -17.2500  18.0000 Du        
  18078 ****        -5.5000 -17.2500  18.2500 Du        
  18079 ****        -5.5000 -17.2500  18.5000 Du        
  18080 ****        -5.5000 -17.2500  18.7500 Du        
  18081 ****        -5.5000 -17.2500  19.0000 Du        
  18082 ****        -5.5000 -17.2500  19.2500 Du        
  18083 ****        -5.5000 -17.2500  22.2500 Du        
  18084 ****        -5.5000 -17.2500  22.5000 Du        
  18085 ****        -5.5000 -17.2500  22.7500 Du        
  18086 ****        -5.5000 -17.2500  23.0000 Du        
  18087 ****        -5.5000 -17.2500  23.2500 Du        
  18088 ****        -5.5000 -17.2500  23.5000 Du        
  18089 ****        -5.5000 -17.2500  23.7500 Du        
  18090 ****        -5.5000 -17.2500  24.0000 Du        
  18091 ****        -5.5000 -17.0000  17.7500 Du        
  18092 ****        -5.5000 -17.0000  18.0000 Du        
  18093 ****        -5.5000 -17.0000  18.2500 Du        
  18094 ****        -5.5000 -17.0000  18.5000 Du        
  18095 ****        -5.5000 -17.0000  18.7500 Du        
  18096 ****        -5.5000 -17.0000  19.0000 Du        
  18097 ****        -5.5000 -17.0000  19.2500 Du        
  18098 ****        -5.5000 -17.0000  22.2500 Du        
  18099 ****        -5.5000 -17.0000  22.5000 Du        
  18100 ****        -5.5000 -17.0000  22.7500 Du        
  18101 ****        -5.5000 -17.0000  23.0000 Du        
  18102 ****        -5.5000 -17.0000  23.2500 Du        
  18103 ****        -5.5000 -17.0000  23.5000 Du        
  18104 ****        -5.5000 -17.0000  23.7500 Du        
  18105 ****        -5.5000 -17.0000  24.0000 Du        
  18106 ****        -5.5000 -16.7500  17.5000 Du        
  18107 ****        -5.5000 -16.7500  17.7500 Du        
  18108 ****        -5.5000 -16.7500  18.0000 Du        
  18109 ****        -5.5000 -16.7500  18.2500 Du        
  18110 ****        -5.5000 -16.7500  18.5000 Du        
  18111 ****        -5.5000 -16.7500  18.7500 Du        
  18112 ****        -5.5000 -16.7500  19.0000 Du        
  18113 ****        -5.5000 -16.7500  19.2500 Du        
  18114 ****        -5.5000 -16.7500  22.7500 Du        
  18115 ****        -5.5000 -16.7500  23.0000 Du        
  18116 ****        -5.5000 -16.7500  23.2500 Du        
  18117 ****        -5.5000 -16.7500  23.5000 Du        
  18118 ****        -5.5000 -16.7500  23.7500 Du        
  18119 ****        -5.5000 -16.7500  24.0000 Du        
  18120 ****        -5.5000 -16.5000  17.5000 Du        
  18121 ****        -5.5000 -16.5000  17.7500 Du        
  18122 ****        -5.5000 -16.5000  18.0000 Du        
  18123 ****        -5.5000 -16.5000  18.2500 Du        
  18124 ****        -5.5000 -16.5000  18.5000 Du        
  18125 ****        -5.5000 -16.5000  18.7500 Du        
  18126 ****        -5.5000 -16.5000  19.0000 Du        
  18127 ****        -5.5000 -16.2500  17.5000 Du        
  18128 ****        -5.5000 -16.2500  17.7500 Du        
  18129 ****        -5.5000 -16.2500  18.0000 Du        
  18130 ****        -5.5000 -16.2500  18.2500 Du        
  18131 ****        -5.5000 -16.2500  18.5000 Du        
  18132 ****        -5.5000 -16.2500  18.7500 Du        
  18133 ****        -5.5000 -16.2500  19.0000 Du        
  18134 ****        -5.5000 -16.2500  19.2500 Du        
  18135 ****        -5.5000 -16.0000  17.5000 Du        
  18136 ****        -5.5000 -16.0000  17.7500 Du        
  18137 ****        -5.5000 -16.0000  18.0000 Du        
  18138 ****        -5.5000 -16.0000  18.2500 Du        
  18139 ****        -5.5000 -16.0000  18.5000 Du        
  18140 ****        -5.5000 -16.0000  18.7500 Du        
  18141 ****        -5.5000 -16.0000  19.0000 Du        
  18142 ****        -5.5000 -16.0000  19.2500 Du        
  18143 ****        -5.5000 -15.7500  17.5000 Du        
  18144 ****        -5.5000 -15.7500  17.7500 Du        
  18145 ****        -5.5000 -15.7500  18.0000 Du        
  18146 ****        -5.5000 -15.7500  18.2500 Du        
  18147 ****        -5.5000 -15.7500  18.5000 Du        
  18148 ****        -5.5000 -15.7500  18.7500 Du        
  18149 ****        -5.5000 -15.7500  19.0000 Du        
  18150 ****        -5.5000 -15.7500  19.2500 Du        
  18151 ****        -5.5000 -15.5000  17.5000 Du        
  18152 ****        -5.5000 -15.5000  17.7500 Du        
  18153 ****        -5.5000 -15.5000  18.0000 Du        
  18154 ****        -5.5000 -15.5000  18.2500 Du        
  18155 ****        -5.5000 -15.5000  18.5000 Du        
  18156 ****        -5.5000 -15.5000  18.7500 Du        
  18157 ****        -5.5000 -15.5000  19.0000 Du        
  18158 ****        -5.5000 -15.5000  19.2500 Du        
  18159 ****        -5.5000 -15.2500  17.7500 Du        
  18160 ****        -5.5000 -15.2500  18.0000 Du        
  18161 ****        -5.5000 -15.2500  18.2500 Du        
  18162 ****        -5.5000 -15.2500  18.5000 Du        
  18163 ****        -5.5000 -15.2500  18.7500 Du        
  18164 ****        -5.5000 -15.2500  19.0000 Du        
  18165 ****        -5.5000 -15.2500  19.2500 Du        
  18166 ****        -5.5000 -15.0000  17.7500 Du        
  18167 ****        -5.5000 -15.0000  18.0000 Du        
  18168 ****        -5.5000 -15.0000  18.2500 Du        
  18169 ****        -5.5000 -15.0000  18.5000 Du        
  18170 ****        -5.5000 -15.0000  18.7500 Du        
  18171 ****        -5.5000 -15.0000  19.0000 Du        
  18172 ****        -5.5000 -15.0000  19.2500 Du        
  18173 ****        -5.5000  -9.2500  21.2500 Du        
  18174 ****        -5.5000  -9.0000  21.2500 Du        
  18175 ****        -5.5000  -8.7500  21.0000 Du        
  18176 ****        -5.5000  -8.7500  21.2500 Du        
  18177 ****        -5.5000  -8.7500  21.5000 Du        
  18178 ****        -5.5000  -8.5000  21.0000 Du        
  18179 ****        -5.5000  -8.5000  21.2500 Du        
  18180 ****        -5.5000  -8.2500  20.7500 Du        
  18181 ****        -5.5000  -8.2500  21.0000 Du        
  18182 ****        -5.5000  -8.2500  21.2500 Du        
  18183 ****        -5.5000  -8.2500  21.5000 Du        
  18184 ****        -5.5000  -8.0000  20.7500 Du        
  18185 ****        -5.5000  -8.0000  21.0000 Du        
  18186 ****        -5.5000  -8.0000  21.2500 Du        
  18187 ****        -5.5000  -8.0000  21.5000 Du        
  18188 ****        -5.5000  -7.7500  20.7500 Du        
  18189 ****        -5.5000  -7.7500  21.0000 Du        
  18190 ****        -5.5000  -7.7500  21.2500 Du        
  18191 ****        -5.5000  -7.7500  21.5000 Du        
  18192 ****        -5.5000  -7.5000  21.0000 Du        
  18193 ****        -5.5000  -7.5000  21.2500 Du        
  18194 ****        -5.5000  -1.5000  20.2500 Du        
  18195 ****        -5.5000  -1.5000  20.5000 Du        
  18196 ****        -5.5000  -1.5000  20.7500 Du        
  18197 ****        -5.5000  -1.5000  21.0000 Du        
  18198 ****        -5.5000  -1.2500  20.0000 Du        
  18199 ****        -5.5000  -1.2500  20.2500 Du        
  18200 ****        -5.5000  -1.2500  20.5000 Du        
  18201 ****        -5.5000  -1.2500  20.7500 Du        
  18202 ****        -5.5000  -1.2500  21.0000 Du        
  18203 ****        -5.5000  -1.2500  21.2500 Du        
  18204 ****        -5.5000  -1.0000  20.0000 Du        
  18205 ****        -5.5000  -1.0000  20.2500 Du        
  18206 ****        -5.5000  -1.0000  20.5000 Du        
  18207 ****        -5.5000  -1.0000  20.7500 Du        
  18208 ****        -5.5000  -1.0000  21.0000 Du        
  18209 ****        -5.5000  -1.0000  21.2500 Du        
  18210 ****        -5.5000  -0.7500  20.0000 Du        
  18211 ****        -5.5000  -0.7500  20.2500 Du        
  18212 ****        -5.5000  -0.7500  20.5000 Du        
  18213 ****        -5.5000  -0.7500  20.7500 Du        
  18214 ****        -5.5000  -0.7500  21.0000 Du        
  18215 ****        -5.5000  -0.7500  21.2500 Du        
  18216 ****        -5.5000  -0.5000  20.2500 Du        
  18217 ****        -5.5000  -0.5000  20.5000 Du        
  18218 ****        -5.5000  -0.5000  20.7500 Du        
  18219 ****        -5.5000   4.7500  10.0000 Du        
  18220 ****        -5.5000   4.7500  10.2500 Du        
  18221 ****        -5.5000   5.0000  10.0000 Du        
  18222 ****        -5.5000   5.0000  10.2500 Du        
  18223 ****        -5.5000   5.0000  10.5000 Du        
  18224 ****        -5.5000   5.2500  10.0000 Du        
  18225 ****        -5.5000   5.2500  10.2500 Du        
  18226 ****        -5.5000   5.2500  10.5000 Du        
  18227 ****        -5.5000   5.2500  10.7500 Du        
  18228 ****        -5.5000   5.5000  10.0000 Du        
  18229 ****        -5.5000   5.5000  10.2500 Du        
  18230 ****        -5.5000   5.5000  10.5000 Du        
  18231 ****        -5.5000   5.5000  10.7500 Du        
  18232 ****        -5.5000   5.5000  11.0000 Du        
  18233 ****        -5.5000   5.7500  10.0000 Du        
  18234 ****        -5.5000   5.7500  10.2500 Du        
  18235 ****        -5.5000   5.7500  10.5000 Du        
  18236 ****        -5.5000   5.7500  10.7500 Du        
  18237 ****        -5.5000   5.7500  11.0000 Du        
  18238 ****        -5.5000   5.7500  11.2500 Du        
  18239 ****        -5.5000   6.0000  10.0000 Du        
  18240 ****        -5.5000   6.0000  10.2500 Du        
  18241 ****        -5.5000   6.0000  10.5000 Du        
  18242 ****        -5.5000   6.0000  10.7500 Du        
  18243 ****        -5.5000   6.0000  11.0000 Du        
  18244 ****        -5.5000   6.0000  11.2500 Du        
  18245 ****        -5.5000   6.2500  10.0000 Du        
  18246 ****        -5.5000   6.2500  10.2500 Du        
  18247 ****        -5.5000   6.2500  10.5000 Du        
  18248 ****        -5.5000   6.2500  10.7500 Du        
  18249 ****        -5.5000   6.2500  11.0000 Du        
  18250 ****        -5.5000   6.2500  11.2500 Du        
  18251 ****        -5.5000   6.5000  10.0000 Du        
  18252 ****        -5.5000   6.5000  10.2500 Du        
  18253 ****        -5.5000   6.5000  10.5000 Du        
  18254 ****        -5.5000   6.5000  10.7500 Du        
  18255 ****        -5.5000   6.5000  11.0000 Du        
  18256 ****        -5.5000   6.5000  11.2500 Du        
  18257 ****        -5.5000   6.7500  10.0000 Du        
  18258 ****        -5.5000   6.7500  10.2500 Du        
  18259 ****        -5.5000   6.7500  10.5000 Du        
  18260 ****        -5.5000   6.7500  10.7500 Du        
  18261 ****        -5.5000   6.7500  11.0000 Du        
  18262 ****        -5.5000   6.7500  11.2500 Du        
  18263 ****        -5.5000   7.0000  10.0000 Du        
  18264 ****        -5.5000   7.0000  10.2500 Du        
  18265 ****        -5.5000   7.0000  10.5000 Du        
  18266 ****        -5.5000   7.0000  10.7500 Du        
  18267 ****        -5.5000   7.0000  11.0000 Du        
  18268 ****        -5.5000   7.2500  10.2500 Du        
  18269 ****        -5.5000   7.2500  10.5000 Du        
  18270 ****        -5.5000   7.2500  10.7500 Du        
  18271 ****        -5.5000   7.2500  11.0000 Du        
  18272 ****        -5.5000  12.2500  27.7500 Du        
  18273 ****        -5.5000  12.2500  28.0000 Du        
  18274 ****        -5.5000  12.2500  28.2500 Du        
  18275 ****        -5.5000  12.2500  28.5000 Du        
  18276 ****        -5.5000  12.2500  28.7500 Du        
  18277 ****        -5.5000  12.2500  29.0000 Du        
  18278 ****        -5.5000  12.2500  29.2500 Du        
  18279 ****        -5.5000  12.5000  27.5000 Du        
  18280 ****        -5.5000  12.5000  27.7500 Du        
  18281 ****        -5.5000  12.5000  28.0000 Du        
  18282 ****        -5.5000  12.5000  28.2500 Du        
  18283 ****        -5.5000  12.5000  28.5000 Du        
  18284 ****        -5.5000  12.5000  28.7500 Du        
  18285 ****        -5.5000  12.5000  29.0000 Du        
  18286 ****        -5.5000  12.5000  29.2500 Du        
  18287 ****        -5.5000  12.5000  29.5000 Du        
  18288 ****        -5.5000  12.5000  29.7500 Du        
  18289 ****        -5.5000  12.5000  30.0000 Du        
  18290 ****        -5.5000  12.5000  30.2500 Du        
  18291 ****        -5.5000  12.7500  27.7500 Du        
  18292 ****        -5.5000  12.7500  28.0000 Du        
  18293 ****        -5.5000  12.7500  28.2500 Du        
  18294 ****        -5.5000  12.7500  28.5000 Du        
  18295 ****        -5.5000  12.7500  28.7500 Du        
  18296 ****        -5.5000  12.7500  29.0000 Du        
  18297 ****        -5.5000  12.7500  29.2500 Du        
  18298 ****        -5.5000  12.7500  29.5000 Du        
  18299 ****        -5.5000  12.7500  29.7500 Du        
  18300 ****        -5.5000  12.7500  30.0000 Du        
  18301 ****        -5.5000  12.7500  30.2500 Du        
  18302 ****        -5.5000  13.0000  27.7500 Du        
  18303 ****        -5.5000  13.0000  28.0000 Du        
  18304 ****        -5.5000  13.0000  28.2500 Du        
  18305 ****        -5.5000  13.0000  28.5000 Du        
  18306 ****        -5.5000  13.0000  28.7500 Du        
  18307 ****        -5.5000  13.0000  29.0000 Du        
  18308 ****        -5.5000  13.0000  29.2500 Du        
  18309 ****        -5.5000  13.0000  29.5000 Du        
  18310 ****        -5.5000  13.0000  29.7500 Du        
  18311 ****        -5.5000  13.0000  30.0000 Du        
  18312 ****        -5.5000  13.2500  28.0000 Du        
  18313 ****        -5.5000  13.2500  28.2500 Du        
  18314 ****        -5.5000  13.2500  28.5000 Du        
  18315 ****        -5.5000  13.2500  28.7500 Du        
  18316 ****        -5.5000  13.2500  29.0000 Du        
  18317 ****        -5.5000  13.2500  29.2500 Du        
  18318 ****        -5.5000  13.2500  29.5000 Du        
  18319 ****        -5.5000  13.2500  29.7500 Du        
  18320 ****        -5.5000  13.2500  30.0000 Du        
  18321 ****        -5.5000  13.5000  28.2500 Du        
  18322 ****        -5.5000  13.5000  28.5000 Du        
  18323 ****        -5.5000  13.5000  28.7500 Du        
  18324 ****        -5.5000  13.5000  29.0000 Du        
  18325 ****        -5.5000  13.5000  29.2500 Du        
  18326 ****        -5.5000  13.5000  29.5000 Du        
  18327 ****        -5.5000  13.5000  29.7500 Du        
  18328 ****        -5.5000  13.7500  28.5000 Du        
  18329 ****        -5.5000  13.7500  28.7500 Du        
  18330 ****        -5.5000  13.7500  29.0000 Du        
  18331 ****        -5.5000  13.7500  29.2500 Du        
  18332 ****        -5.5000  13.7500  29.5000 Du        
  18333 ****        -5.5000  13.7500  29.7500 Du        
  18334 ****        -5.5000  14.0000  28.7500 Du        
  18335 ****        -5.5000  14.0000  29.0000 Du        
  18336 ****        -5.5000  14.0000  29.2500 Du        
  18337 ****        -5.5000  14.0000  29.5000 Du        
  18338 ****        -5.5000  14.0000  29.7500 Du        
  18339 ****        -5.5000  14.2500  29.0000 Du        
  18340 ****        -5.5000  14.2500  29.2500 Du        
  18341 ****        -5.5000  14.2500  29.5000 Du        
  18342 ****        -5.5000  14.5000  29.0000 Du        
  18343 ****        -5.5000  14.5000  29.2500 Du        
  18344 ****        -5.5000  14.5000  29.5000 Du        
  18345 ****        -5.2500 -20.7500  19.0000 Du        
  18346 ****        -5.2500 -20.5000  18.2500 Du        
  18347 ****        -5.2500 -20.5000  18.5000 Du        
  18348 ****        -5.2500 -20.5000  18.7500 Du        
  18349 ****        -5.2500 -20.5000  19.0000 Du        
  18350 ****        -5.2500 -20.5000  19.2500 Du        
  18351 ****        -5.2500 -20.2500  18.0000 Du        
  18352 ****        -5.2500 -20.2500  18.2500 Du        
  18353 ****        -5.2500 -20.2500  18.5000 Du        
  18354 ****        -5.2500 -20.2500  18.7500 Du        
  18355 ****        -5.2500 -20.2500  19.0000 Du        
  18356 ****        -5.2500 -20.2500  19.2500 Du        
  18357 ****        -5.2500 -20.0000  18.0000 Du        
  18358 ****        -5.2500 -20.0000  18.2500 Du        
  18359 ****        -5.2500 -20.0000  18.5000 Du        
  18360 ****        -5.2500 -20.0000  18.7500 Du        
  18361 ****        -5.2500 -20.0000  19.0000 Du        
  18362 ****        -5.2500 -20.0000  19.2500 Du        
  18363 ****        -5.2500 -19.7500  18.2500 Du        
  18364 ****        -5.2500 -19.7500  18.5000 Du        
  18365 ****        -5.2500 -19.7500  18.7500 Du        
  18366 ****        -5.2500 -19.7500  19.0000 Du        
  18367 ****        -5.2500 -19.7500  19.2500 Du        
  18368 ****        -5.2500 -19.7500  19.5000 Du        
  18369 ****        -5.2500 -19.5000  18.2500 Du        
  18370 ****        -5.2500 -19.5000  18.5000 Du        
  18371 ****        -5.2500 -19.5000  18.7500 Du        
  18372 ****        -5.2500 -19.5000  19.0000 Du        
  18373 ****        -5.2500 -19.5000  19.2500 Du        
  18374 ****        -5.2500 -19.5000  19.5000 Du        
  18375 ****        -5.2500 -19.2500  18.2500 Du        
  18376 ****        -5.2500 -19.2500  18.5000 Du        
  18377 ****        -5.2500 -19.2500  18.7500 Du        
  18378 ****        -5.2500 -19.2500  19.0000 Du        
  18379 ****        -5.2500 -19.2500  19.2500 Du        
  18380 ****        -5.2500 -19.2500  19.5000 Du        
  18381 ****        -5.2500 -19.0000  18.2500 Du        
  18382 ****        -5.2500 -19.0000  18.5000 Du        
  18383 ****        -5.2500 -19.0000  18.7500 Du        
  18384 ****        -5.2500 -19.0000  19.0000 Du        
  18385 ****        -5.2500 -19.0000  19.2500 Du        
  18386 ****        -5.2500 -19.0000  19.5000 Du        
  18387 ****        -5.2500 -18.7500  18.0000 Du        
  18388 ****        -5.2500 -18.7500  18.2500 Du        
  18389 ****        -5.2500 -18.7500  18.5000 Du        
  18390 ****        -5.2500 -18.7500  18.7500 Du        
  18391 ****        -5.2500 -18.7500  19.0000 Du        
  18392 ****        -5.2500 -18.7500  19.2500 Du        
  18393 ****        -5.2500 -18.7500  23.5000 Du        
  18394 ****        -5.2500 -18.7500  23.7500 Du        
  18395 ****        -5.2500 -18.7500  24.0000 Du        
  18396 ****        -5.2500 -18.5000  18.0000 Du        
  18397 ****        -5.2500 -18.5000  18.2500 Du        
  18398 ****        -5.2500 -18.5000  18.5000 Du        
  18399 ****        -5.2500 -18.5000  18.7500 Du        
  18400 ****        -5.2500 -18.5000  19.0000 Du        
  18401 ****        -5.2500 -18.5000  19.2500 Du        
  18402 ****        -5.2500 -18.5000  23.0000 Du        
  18403 ****        -5.2500 -18.5000  23.2500 Du        
  18404 ****        -5.2500 -18.5000  23.5000 Du        
  18405 ****        -5.2500 -18.5000  23.7500 Du        
  18406 ****        -5.2500 -18.5000  24.0000 Du        
  18407 ****        -5.2500 -18.2500  18.0000 Du        
  18408 ****        -5.2500 -18.2500  18.2500 Du        
  18409 ****        -5.2500 -18.2500  18.5000 Du        
  18410 ****        -5.2500 -18.2500  18.7500 Du        
  18411 ****        -5.2500 -18.2500  19.0000 Du        
  18412 ****        -5.2500 -18.2500  19.2500 Du        
  18413 ****        -5.2500 -18.2500  22.7500 Du        
  18414 ****        -5.2500 -18.2500  23.0000 Du        
  18415 ****        -5.2500 -18.2500  23.2500 Du        
  18416 ****        -5.2500 -18.2500  23.5000 Du        
  18417 ****        -5.2500 -18.2500  23.7500 Du        
  18418 ****        -5.2500 -18.2500  24.0000 Du        
  18419 ****        -5.2500 -18.0000  18.0000 Du        
  18420 ****        -5.2500 -18.0000  18.2500 Du        
  18421 ****        -5.2500 -18.0000  18.5000 Du        
  18422 ****        -5.2500 -18.0000  18.7500 Du        
  18423 ****        -5.2500 -18.0000  19.0000 Du        
  18424 ****        -5.2500 -18.0000  22.2500 Du        
  18425 ****        -5.2500 -18.0000  22.5000 Du        
  18426 ****        -5.2500 -18.0000  22.7500 Du        
  18427 ****        -5.2500 -18.0000  23.0000 Du        
  18428 ****        -5.2500 -18.0000  23.2500 Du        
  18429 ****        -5.2500 -18.0000  23.5000 Du        
  18430 ****        -5.2500 -18.0000  23.7500 Du        
  18431 ****        -5.2500 -18.0000  24.0000 Du        
  18432 ****        -5.2500 -17.7500  17.7500 Du        
  18433 ****        -5.2500 -17.7500  18.0000 Du        
  18434 ****        -5.2500 -17.7500  18.2500 Du        
  18435 ****        -5.2500 -17.7500  18.5000 Du        
  18436 ****        -5.2500 -17.7500  18.7500 Du        
  18437 ****        -5.2500 -17.7500  19.0000 Du        
  18438 ****        -5.2500 -17.7500  19.2500 Du        
  18439 ****        -5.2500 -17.7500  22.0000 Du        
  18440 ****        -5.2500 -17.7500  22.2500 Du        
  18441 ****        -5.2500 -17.7500  22.5000 Du        
  18442 ****        -5.2500 -17.7500  22.7500 Du        
  18443 ****        -5.2500 -17.7500  23.0000 Du        
  18444 ****        -5.2500 -17.7500  23.2500 Du        
  18445 ****        -5.2500 -17.7500  23.5000 Du        
  18446 ****        -5.2500 -17.7500  23.7500 Du        
  18447 ****        -5.2500 -17.7500  24.0000 Du        
  18448 ****        -5.2500 -17.5000  17.7500 Du        
  18449 ****        -5.2500 -17.5000  18.0000 Du        
  18450 ****        -5.2500 -17.5000  18.2500 Du        
  18451 ****        -5.2500 -17.5000  18.5000 Du        
  18452 ****        -5.2500 -17.5000  18.7500 Du        
  18453 ****        -5.2500 -17.5000  19.0000 Du        
  18454 ****        -5.2500 -17.5000  22.0000 Du        
  18455 ****        -5.2500 -17.5000  22.2500 Du        
  18456 ****        -5.2500 -17.5000  22.5000 Du        
  18457 ****        -5.2500 -17.5000  22.7500 Du        
  18458 ****        -5.2500 -17.5000  23.0000 Du        
  18459 ****        -5.2500 -17.5000  23.2500 Du        
  18460 ****        -5.2500 -17.5000  23.5000 Du        
  18461 ****        -5.2500 -17.5000  23.7500 Du        
  18462 ****        -5.2500 -17.5000  24.0000 Du        
  18463 ****        -5.2500 -17.2500  17.5000 Du        
  18464 ****        -5.2500 -17.2500  17.7500 Du        
  18465 ****        -5.2500 -17.2500  18.0000 Du        
  18466 ****        -5.2500 -17.2500  18.2500 Du        
  18467 ****        -5.2500 -17.2500  18.5000 Du        
  18468 ****        -5.2500 -17.2500  18.7500 Du        
  18469 ****        -5.2500 -17.2500  19.0000 Du        
  18470 ****        -5.2500 -17.2500  22.0000 Du        
  18471 ****        -5.2500 -17.2500  22.2500 Du        
  18472 ****        -5.2500 -17.2500  22.5000 Du        
  18473 ****        -5.2500 -17.2500  22.7500 Du        
  18474 ****        -5.2500 -17.2500  23.0000 Du        
  18475 ****        -5.2500 -17.2500  23.2500 Du        
  18476 ****        -5.2500 -17.2500  23.5000 Du        
  18477 ****        -5.2500 -17.2500  23.7500 Du        
  18478 ****        -5.2500 -17.2500  24.0000 Du        
  18479 ****        -5.2500 -17.0000  17.2500 Du        
  18480 ****        -5.2500 -17.0000  17.5000 Du        
  18481 ****        -5.2500 -17.0000  17.7500 Du        
  18482 ****        -5.2500 -17.0000  18.0000 Du        
  18483 ****        -5.2500 -17.0000  18.2500 Du        
  18484 ****        -5.2500 -17.0000  18.5000 Du        
  18485 ****        -5.2500 -17.0000  18.7500 Du        
  18486 ****        -5.2500 -17.0000  19.0000 Du        
  18487 ****        -5.2500 -17.0000  19.2500 Du        
  18488 ****        -5.2500 -17.0000  22.0000 Du        
  18489 ****        -5.2500 -17.0000  22.2500 Du        
  18490 ****        -5.2500 -17.0000  22.5000 Du        
  18491 ****        -5.2500 -17.0000  22.7500 Du        
  18492 ****        -5.2500 -17.0000  23.0000 Du        
  18493 ****        -5.2500 -17.0000  23.2500 Du        
  18494 ****        -5.2500 -17.0000  23.5000 Du        
  18495 ****        -5.2500 -17.0000  23.7500 Du        
  18496 ****        -5.2500 -17.0000  24.0000 Du        
  18497 ****        -5.2500 -16.7500  17.2500 Du        
  18498 ****        -5.2500 -16.7500  17.5000 Du        
  18499 ****        -5.2500 -16.7500  17.7500 Du        
  18500 ****        -5.2500 -16.7500  18.0000 Du        
  18501 ****        -5.2500 -16.7500  18.2500 Du        
  18502 ****        -5.2500 -16.7500  18.5000 Du        
  18503 ****        -5.2500 -16.7500  18.7500 Du        
  18504 ****        -5.2500 -16.7500  19.0000 Du        
  18505 ****        -5.2500 -16.7500  19.2500 Du        
  18506 ****        -5.2500 -16.7500  22.2500 Du        
  18507 ****        -5.2500 -16.7500  22.5000 Du        
  18508 ****        -5.2500 -16.7500  22.7500 Du        
  18509 ****        -5.2500 -16.7500  23.0000 Du        
  18510 ****        -5.2500 -16.7500  23.2500 Du        
  18511 ****        -5.2500 -16.7500  23.5000 Du        
  18512 ****        -5.2500 -16.7500  23.7500 Du        
  18513 ****        -5.2500 -16.7500  24.0000 Du        
  18514 ****        -5.2500 -16.5000  17.5000 Du        
  18515 ****        -5.2500 -16.5000  17.7500 Du        
  18516 ****        -5.2500 -16.5000  18.0000 Du        
  18517 ****        -5.2500 -16.5000  18.2500 Du        
  18518 ****        -5.2500 -16.5000  18.5000 Du        
  18519 ****        -5.2500 -16.5000  18.7500 Du        
  18520 ****        -5.2500 -16.5000  19.0000 Du        
  18521 ****        -5.2500 -16.5000  23.0000 Du        
  18522 ****        -5.2500 -16.5000  23.2500 Du        
  18523 ****        -5.2500 -16.5000  23.5000 Du        
  18524 ****        -5.2500 -16.5000  23.7500 Du        
  18525 ****        -5.2500 -16.5000  24.0000 Du        
  18526 ****        -5.2500 -16.2500  17.5000 Du        
  18527 ****        -5.2500 -16.2500  17.7500 Du        
  18528 ****        -5.2500 -16.2500  18.0000 Du        
  18529 ****        -5.2500 -16.2500  18.2500 Du        
  18530 ****        -5.2500 -16.2500  18.5000 Du        
  18531 ****        -5.2500 -16.2500  18.7500 Du        
  18532 ****        -5.2500 -16.2500  19.0000 Du        
  18533 ****        -5.2500 -16.2500  23.0000 Du        
  18534 ****        -5.2500 -16.2500  23.2500 Du        
  18535 ****        -5.2500 -16.2500  23.5000 Du        
  18536 ****        -5.2500 -16.2500  23.7500 Du        
  18537 ****        -5.2500 -16.2500  24.0000 Du        
  18538 ****        -5.2500 -16.2500  24.2500 Du        
  18539 ****        -5.2500 -16.0000  17.5000 Du        
  18540 ****        -5.2500 -16.0000  17.7500 Du        
  18541 ****        -5.2500 -16.0000  18.0000 Du        
  18542 ****        -5.2500 -16.0000  18.2500 Du        
  18543 ****        -5.2500 -16.0000  18.5000 Du        
  18544 ****        -5.2500 -16.0000  18.7500 Du        
  18545 ****        -5.2500 -16.0000  19.0000 Du        
  18546 ****        -5.2500 -16.0000  19.2500 Du        
  18547 ****        -5.2500 -16.0000  23.2500 Du        
  18548 ****        -5.2500 -16.0000  23.5000 Du        
  18549 ****        -5.2500 -16.0000  23.7500 Du        
  18550 ****        -5.2500 -16.0000  24.0000 Du        
  18551 ****        -5.2500 -16.0000  24.2500 Du        
  18552 ****        -5.2500 -15.7500  17.5000 Du        
  18553 ****        -5.2500 -15.7500  17.7500 Du        
  18554 ****        -5.2500 -15.7500  18.0000 Du        
  18555 ****        -5.2500 -15.7500  18.2500 Du        
  18556 ****        -5.2500 -15.7500  18.5000 Du        
  18557 ****        -5.2500 -15.7500  18.7500 Du        
  18558 ****        -5.2500 -15.7500  19.0000 Du        
  18559 ****        -5.2500 -15.7500  19.2500 Du        
  18560 ****        -5.2500 -15.7500  23.5000 Du        
  18561 ****        -5.2500 -15.7500  23.7500 Du        
  18562 ****        -5.2500 -15.7500  24.0000 Du        
  18563 ****        -5.2500 -15.5000  17.5000 Du        
  18564 ****        -5.2500 -15.5000  17.7500 Du        
  18565 ****        -5.2500 -15.5000  18.0000 Du        
  18566 ****        -5.2500 -15.5000  18.2500 Du        
  18567 ****        -5.2500 -15.5000  18.5000 Du        
  18568 ****        -5.2500 -15.5000  18.7500 Du        
  18569 ****        -5.2500 -15.5000  19.0000 Du        
  18570 ****        -5.2500 -15.5000  19.2500 Du        
  18571 ****        -5.2500 -15.2500  17.7500 Du        
  18572 ****        -5.2500 -15.2500  18.0000 Du        
  18573 ****        -5.2500 -15.2500  18.2500 Du        
  18574 ****        -5.2500 -15.2500  18.5000 Du        
  18575 ****        -5.2500 -15.2500  18.7500 Du        
  18576 ****        -5.2500 -15.2500  19.0000 Du        
  18577 ****        -5.2500 -15.2500  19.2500 Du        
  18578 ****        -5.2500 -15.0000  17.7500 Du        
  18579 ****        -5.2500 -15.0000  18.0000 Du        
  18580 ****        -5.2500 -15.0000  18.2500 Du        
  18581 ****        -5.2500 -15.0000  18.5000 Du        
  18582 ****        -5.2500 -15.0000  18.7500 Du        
  18583 ****        -5.2500 -15.0000  19.0000 Du        
  18584 ****        -5.2500 -15.0000  19.2500 Du        
  18585 ****        -5.2500  -9.5000  21.2500 Du        
  18586 ****        -5.2500  -9.2500  21.2500 Du        
  18587 ****        -5.2500  -9.0000  21.2500 Du        
  18588 ****        -5.2500  -8.7500  21.0000 Du        
  18589 ****        -5.2500  -8.7500  21.2500 Du        
  18590 ****        -5.2500  -8.7500  21.5000 Du        
  18591 ****        -5.2500  -8.5000  21.0000 Du        
  18592 ****        -5.2500  -8.5000  21.2500 Du        
  18593 ****        -5.2500  -8.2500  20.7500 Du        
  18594 ****        -5.2500  -8.2500  21.0000 Du        
  18595 ****        -5.2500  -8.2500  21.2500 Du        
  18596 ****        -5.2500  -8.0000  20.7500 Du        
  18597 ****        -5.2500  -8.0000  21.0000 Du        
  18598 ****        -5.2500  -8.0000  21.2500 Du        
  18599 ****        -5.2500  -8.0000  21.5000 Du        
  18600 ****        -5.2500  -7.7500  20.7500 Du        
  18601 ****        -5.2500  -7.7500  21.0000 Du        
  18602 ****        -5.2500  -7.7500  21.2500 Du        
  18603 ****        -5.2500  -7.7500  21.5000 Du        
  18604 ****        -5.2500  -7.5000  20.7500 Du        
  18605 ****        -5.2500  -7.5000  21.0000 Du        
  18606 ****        -5.2500  -7.5000  21.2500 Du        
  18607 ****        -5.2500  -7.5000  21.5000 Du        
  18608 ****        -5.2500  -7.2500  21.0000 Du        
  18609 ****        -5.2500  -1.5000  20.0000 Du        
  18610 ****        -5.2500  -1.5000  20.2500 Du        
  18611 ****        -5.2500  -1.5000  20.5000 Du        
  18612 ****        -5.2500  -1.5000  20.7500 Du        
  18613 ****        -5.2500  -1.5000  21.0000 Du        
  18614 ****        -5.2500  -1.5000  21.2500 Du        
  18615 ****        -5.2500  -1.2500  20.0000 Du        
  18616 ****        -5.2500  -1.2500  20.2500 Du        
  18617 ****        -5.2500  -1.2500  20.5000 Du        
  18618 ****        -5.2500  -1.2500  20.7500 Du        
  18619 ****        -5.2500  -1.2500  21.0000 Du        
  18620 ****        -5.2500  -1.2500  21.2500 Du        
  18621 ****        -5.2500  -1.0000  20.0000 Du        
  18622 ****        -5.2500  -1.0000  20.2500 Du        
  18623 ****        -5.2500  -1.0000  20.5000 Du        
  18624 ****        -5.2500  -1.0000  20.7500 Du        
  18625 ****        -5.2500  -1.0000  21.0000 Du        
  18626 ****        -5.2500  -1.0000  21.2500 Du        
  18627 ****        -5.2500  -0.7500  20.2500 Du        
  18628 ****        -5.2500  -0.7500  20.5000 Du        
  18629 ****        -5.2500  -0.7500  20.7500 Du        
  18630 ****        -5.2500  -0.7500  21.0000 Du        
  18631 ****        -5.2500   4.5000  10.0000 Du        
  18632 ****        -5.2500   4.7500  10.0000 Du        
  18633 ****        -5.2500   4.7500  10.2500 Du        
  18634 ****        -5.2500   4.7500  10.5000 Du        
  18635 ****        -5.2500   5.0000  10.0000 Du        
  18636 ****        -5.2500   5.0000  10.2500 Du        
  18637 ****        -5.2500   5.0000  10.5000 Du        
  18638 ****        -5.2500   5.0000  10.7500 Du        
  18639 ****        -5.2500   5.2500  10.0000 Du        
  18640 ****        -5.2500   5.2500  10.2500 Du        
  18641 ****        -5.2500   5.2500  10.5000 Du        
  18642 ****        -5.2500   5.2500  10.7500 Du        
  18643 ****        -5.2500   5.2500  11.0000 Du        
  18644 ****        -5.2500   5.5000  10.0000 Du        
  18645 ****        -5.2500   5.5000  10.2500 Du        
  18646 ****        -5.2500   5.5000  10.5000 Du        
  18647 ****        -5.2500   5.5000  10.7500 Du        
  18648 ****        -5.2500   5.5000  11.0000 Du        
  18649 ****        -5.2500   5.5000  11.2500 Du        
  18650 ****        -5.2500   5.7500  10.0000 Du        
  18651 ****        -5.2500   5.7500  10.2500 Du        
  18652 ****        -5.2500   5.7500  10.5000 Du        
  18653 ****        -5.2500   5.7500  10.7500 Du        
  18654 ****        -5.2500   5.7500  11.0000 Du        
  18655 ****        -5.2500   5.7500  11.2500 Du        
  18656 ****        -5.2500   6.0000  10.0000 Du        
  18657 ****        -5.2500   6.0000  10.2500 Du        
  18658 ****        -5.2500   6.0000  10.5000 Du        
  18659 ****        -5.2500   6.0000  10.7500 Du        
  18660 ****        -5.2500   6.0000  11.0000 Du        
  18661 ****        -5.2500   6.0000  11.2500 Du        
  18662 ****        -5.2500   6.2500  10.0000 Du        
  18663 ****        -5.2500   6.2500  10.2500 Du        
  18664 ****        -5.2500   6.2500  10.5000 Du        
  18665 ****        -5.2500   6.2500  10.7500 Du        
  18666 ****        -5.2500   6.2500  11.0000 Du        
  18667 ****        -5.2500   6.2500  11.2500 Du        
  18668 ****        -5.2500   6.5000  10.0000 Du        
  18669 ****        -5.2500   6.5000  10.2500 Du        
  18670 ****        -5.2500   6.5000  10.5000 Du        
  18671 ****        -5.2500   6.5000  10.7500 Du        
  18672 ****        -5.2500   6.5000  11.0000 Du        
  18673 ****        -5.2500   6.5000  11.2500 Du        
  18674 ****        -5.2500   6.7500  10.0000 Du        
  18675 ****        -5.2500   6.7500  10.2500 Du        
  18676 ****        -5.2500   6.7500  10.5000 Du        
  18677 ****        -5.2500   6.7500  10.7500 Du        
  18678 ****        -5.2500   6.7500  11.0000 Du        
  18679 ****        -5.2500   6.7500  11.2500 Du        
  18680 ****        -5.2500   7.0000  10.0000 Du        
  18681 ****        -5.2500   7.0000  10.2500 Du        
  18682 ****        -5.2500   7.0000  10.5000 Du        
  18683 ****        -5.2500   7.0000  10.7500 Du        
  18684 ****        -5.2500   7.0000  11.0000 Du        
  18685 ****        -5.2500   7.2500  10.5000 Du        
  18686 ****        -5.2500   7.2500  10.7500 Du        
  18687 ****        -5.2500  12.5000  27.7500 Du        
  18688 ****        -5.2500  12.5000  28.0000 Du        
  18689 ****        -5.2500  12.5000  28.2500 Du        
  18690 ****        -5.2500  12.5000  28.5000 Du        
  18691 ****        -5.2500  12.5000  28.7500 Du        
  18692 ****        -5.2500  12.7500  27.7500 Du        
  18693 ****        -5.2500  12.7500  28.0000 Du        
  18694 ****        -5.2500  12.7500  28.2500 Du        
  18695 ****        -5.2500  12.7500  28.5000 Du        
  18696 ****        -5.2500  12.7500  28.7500 Du        
  18697 ****        -5.2500  12.7500  29.0000 Du        
  18698 ****        -5.2500  12.7500  29.2500 Du        
  18699 ****        -5.2500  12.7500  29.5000 Du        
  18700 ****        -5.2500  13.0000  28.0000 Du        
  18701 ****        -5.2500  13.0000  28.2500 Du        
  18702 ****        -5.2500  13.0000  28.5000 Du        
  18703 ****        -5.2500  13.0000  28.7500 Du        
  18704 ****        -5.2500  13.0000  29.0000 Du        
  18705 ****        -5.2500  13.0000  29.2500 Du        
  18706 ****        -5.2500  13.0000  29.5000 Du        
  18707 ****        -5.2500  13.0000  29.7500 Du        
  18708 ****        -5.2500  13.2500  28.0000 Du        
  18709 ****        -5.2500  13.2500  28.2500 Du        
  18710 ****        -5.2500  13.2500  28.5000 Du        
  18711 ****        -5.2500  13.2500  28.7500 Du        
  18712 ****        -5.2500  13.2500  29.0000 Du        
  18713 ****        -5.2500  13.2500  29.2500 Du        
  18714 ****        -5.2500  13.2500  29.5000 Du        
  18715 ****        -5.2500  13.5000  28.2500 Du        
  18716 ****        -5.2500  13.5000  28.5000 Du        
  18717 ****        -5.2500  13.5000  28.7500 Du        
  18718 ****        -5.2500  13.5000  29.0000 Du        
  18719 ****        -5.2500  13.5000  29.2500 Du        
  18720 ****        -5.2500  13.5000  29.5000 Du        
  18721 ****        -5.2500  13.7500  28.5000 Du        
  18722 ****        -5.2500  13.7500  28.7500 Du        
  18723 ****        -5.2500  13.7500  29.0000 Du        
  18724 ****        -5.2500  13.7500  29.2500 Du        
  18725 ****        -5.2500  14.0000  28.7500 Du        
  18726 ****        -5.2500  14.0000  29.0000 Du        
  18727 ****        -5.2500  14.0000  29.2500 Du        
  18728 ****        -5.2500  14.2500  29.0000 Du        
  18729 ****        -5.2500  14.2500  29.2500 Du        
  18730 ****        -5.0000 -20.5000  18.7500 Du        
  18731 ****        -5.0000 -20.5000  19.0000 Du        
  18732 ****        -5.0000 -20.2500  18.0000 Du        
  18733 ****        -5.0000 -20.2500  18.2500 Du        
  18734 ****        -5.0000 -20.2500  18.5000 Du        
  18735 ****        -5.0000 -20.2500  18.7500 Du        
  18736 ****        -5.0000 -20.2500  19.0000 Du        
  18737 ****        -5.0000 -20.2500  19.2500 Du        
  18738 ****        -5.0000 -20.0000  17.7500 Du        
  18739 ****        -5.0000 -20.0000  18.0000 Du        
  18740 ****        -5.0000 -20.0000  18.2500 Du        
  18741 ****        -5.0000 -20.0000  18.5000 Du        
  18742 ****        -5.0000 -20.0000  18.7500 Du        
  18743 ****        -5.0000 -20.0000  19.0000 Du        
  18744 ****        -5.0000 -20.0000  19.2500 Du        
  18745 ****        -5.0000 -19.7500  17.7500 Du        
  18746 ****        -5.0000 -19.7500  18.0000 Du        
  18747 ****        -5.0000 -19.7500  18.2500 Du        
  18748 ****        -5.0000 -19.7500  18.5000 Du        
  18749 ****        -5.0000 -19.7500  18.7500 Du        
  18750 ****        -5.0000 -19.7500  19.0000 Du        
  18751 ****        -5.0000 -19.7500  19.2500 Du        
  18752 ****        -5.0000 -19.5000  18.0000 Du        
  18753 ****        -5.0000 -19.5000  18.2500 Du        
  18754 ****        -5.0000 -19.5000  18.5000 Du        
  18755 ****        -5.0000 -19.5000  18.7500 Du        
  18756 ****        -5.0000 -19.5000  19.0000 Du        
  18757 ****        -5.0000 -19.5000  19.2500 Du        
  18758 ****        -5.0000 -19.2500  17.7500 Du        
  18759 ****        -5.0000 -19.2500  18.0000 Du        
  18760 ****        -5.0000 -19.2500  18.2500 Du        
  18761 ****        -5.0000 -19.2500  18.5000 Du        
  18762 ****        -5.0000 -19.2500  18.7500 Du        
  18763 ****        -5.0000 -19.2500  19.0000 Du        
  18764 ****        -5.0000 -19.2500  19.2500 Du        
  18765 ****        -5.0000 -19.0000  17.7500 Du        
  18766 ****        -5.0000 -19.0000  18.0000 Du        
  18767 ****        -5.0000 -19.0000  18.2500 Du        
  18768 ****        -5.0000 -19.0000  18.5000 Du        
  18769 ****        -5.0000 -19.0000  18.7500 Du        
  18770 ****        -5.0000 -19.0000  19.0000 Du        
  18771 ****        -5.0000 -19.0000  24.0000 Du        
  18772 ****        -5.0000 -18.7500  17.7500 Du        
  18773 ****        -5.0000 -18.7500  18.0000 Du        
  18774 ****        -5.0000 -18.7500  18.2500 Du        
  18775 ****        -5.0000 -18.7500  18.5000 Du        
  18776 ****        -5.0000 -18.7500  18.7500 Du        
  18777 ****        -5.0000 -18.7500  19.0000 Du        
  18778 ****        -5.0000 -18.7500  23.5000 Du        
  18779 ****        -5.0000 -18.7500  23.7500 Du        
  18780 ****        -5.0000 -18.7500  24.0000 Du        
  18781 ****        -5.0000 -18.5000  17.7500 Du        
  18782 ****        -5.0000 -18.5000  18.0000 Du        
  18783 ****        -5.0000 -18.5000  18.2500 Du        
  18784 ****        -5.0000 -18.5000  18.5000 Du        
  18785 ****        -5.0000 -18.5000  18.7500 Du        
  18786 ****        -5.0000 -18.5000  23.0000 Du        
  18787 ****        -5.0000 -18.5000  23.2500 Du        
  18788 ****        -5.0000 -18.5000  23.5000 Du        
  18789 ****        -5.0000 -18.5000  23.7500 Du        
  18790 ****        -5.0000 -18.5000  24.0000 Du        
  18791 ****        -5.0000 -18.2500  17.7500 Du        
  18792 ****        -5.0000 -18.2500  18.0000 Du        
  18793 ****        -5.0000 -18.2500  18.2500 Du        
  18794 ****        -5.0000 -18.2500  18.5000 Du        
  18795 ****        -5.0000 -18.2500  18.7500 Du        
  18796 ****        -5.0000 -18.2500  22.7500 Du        
  18797 ****        -5.0000 -18.2500  23.0000 Du        
  18798 ****        -5.0000 -18.2500  23.2500 Du        
  18799 ****        -5.0000 -18.2500  23.5000 Du        
  18800 ****        -5.0000 -18.2500  23.7500 Du        
  18801 ****        -5.0000 -18.2500  24.0000 Du        
  18802 ****        -5.0000 -18.0000  17.7500 Du        
  18803 ****        -5.0000 -18.0000  18.0000 Du        
  18804 ****        -5.0000 -18.0000  18.2500 Du        
  18805 ****        -5.0000 -18.0000  18.5000 Du        
  18806 ****        -5.0000 -18.0000  18.7500 Du        
  18807 ****        -5.0000 -18.0000  22.5000 Du        
  18808 ****        -5.0000 -18.0000  22.7500 Du        
  18809 ****        -5.0000 -18.0000  23.0000 Du        
  18810 ****        -5.0000 -18.0000  23.2500 Du        
  18811 ****        -5.0000 -18.0000  23.5000 Du        
  18812 ****        -5.0000 -18.0000  23.7500 Du        
  18813 ****        -5.0000 -18.0000  24.0000 Du        
  18814 ****        -5.0000 -17.7500  17.5000 Du        
  18815 ****        -5.0000 -17.7500  17.7500 Du        
  18816 ****        -5.0000 -17.7500  18.0000 Du        
  18817 ****        -5.0000 -17.7500  18.2500 Du        
  18818 ****        -5.0000 -17.7500  18.5000 Du        
  18819 ****        -5.0000 -17.7500  22.2500 Du        
  18820 ****        -5.0000 -17.7500  22.5000 Du        
  18821 ****        -5.0000 -17.7500  22.7500 Du        
  18822 ****        -5.0000 -17.7500  23.0000 Du        
  18823 ****        -5.0000 -17.7500  23.2500 Du        
  18824 ****        -5.0000 -17.7500  23.5000 Du        
  18825 ****        -5.0000 -17.7500  23.7500 Du        
  18826 ****        -5.0000 -17.7500  24.0000 Du        
  18827 ****        -5.0000 -17.5000  17.5000 Du        
  18828 ****        -5.0000 -17.5000  17.7500 Du        
  18829 ****        -5.0000 -17.5000  18.0000 Du        
  18830 ****        -5.0000 -17.5000  18.2500 Du        
  18831 ****        -5.0000 -17.5000  18.5000 Du        
  18832 ****        -5.0000 -17.5000  18.7500 Du        
  18833 ****        -5.0000 -17.5000  22.2500 Du        
  18834 ****        -5.0000 -17.5000  22.5000 Du        
  18835 ****        -5.0000 -17.5000  22.7500 Du        
  18836 ****        -5.0000 -17.5000  23.0000 Du        
  18837 ****        -5.0000 -17.5000  23.2500 Du        
  18838 ****        -5.0000 -17.5000  23.5000 Du        
  18839 ****        -5.0000 -17.5000  23.7500 Du        
  18840 ****        -5.0000 -17.5000  24.0000 Du        
  18841 ****        -5.0000 -17.2500  17.2500 Du        
  18842 ****        -5.0000 -17.2500  17.5000 Du        
  18843 ****        -5.0000 -17.2500  17.7500 Du        
  18844 ****        -5.0000 -17.2500  18.0000 Du        
  18845 ****        -5.0000 -17.2500  18.2500 Du        
  18846 ****        -5.0000 -17.2500  18.5000 Du        
  18847 ****        -5.0000 -17.2500  18.7500 Du        
  18848 ****        -5.0000 -17.2500  22.2500 Du        
  18849 ****        -5.0000 -17.2500  22.5000 Du        
  18850 ****        -5.0000 -17.2500  22.7500 Du        
  18851 ****        -5.0000 -17.2500  23.0000 Du        
  18852 ****        -5.0000 -17.2500  23.2500 Du        
  18853 ****        -5.0000 -17.2500  23.5000 Du        
  18854 ****        -5.0000 -17.2500  23.7500 Du        
  18855 ****        -5.0000 -17.2500  24.0000 Du        
  18856 ****        -5.0000 -17.2500  24.2500 Du        
  18857 ****        -5.0000 -17.0000  17.2500 Du        
  18858 ****        -5.0000 -17.0000  17.5000 Du        
  18859 ****        -5.0000 -17.0000  17.7500 Du        
  18860 ****        -5.0000 -17.0000  18.0000 Du        
  18861 ****        -5.0000 -17.0000  18.2500 Du        
  18862 ****        -5.0000 -17.0000  18.5000 Du        
  18863 ****        -5.0000 -17.0000  18.7500 Du        
  18864 ****        -5.0000 -17.0000  22.0000 Du        
  18865 ****        -5.0000 -17.0000  22.2500 Du        
  18866 ****        -5.0000 -17.0000  22.5000 Du        
  18867 ****        -5.0000 -17.0000  22.7500 Du        
  18868 ****        -5.0000 -17.0000  23.0000 Du        
  18869 ****        -5.0000 -17.0000  23.2500 Du        
  18870 ****        -5.0000 -17.0000  23.5000 Du        
  18871 ****        -5.0000 -17.0000  23.7500 Du        
  18872 ****        -5.0000 -17.0000  24.0000 Du        
  18873 ****        -5.0000 -17.0000  24.2500 Du        
  18874 ****        -5.0000 -16.7500  17.2500 Du        
  18875 ****        -5.0000 -16.7500  17.5000 Du        
  18876 ****        -5.0000 -16.7500  17.7500 Du        
  18877 ****        -5.0000 -16.7500  18.0000 Du        
  18878 ****        -5.0000 -16.7500  18.2500 Du        
  18879 ****        -5.0000 -16.7500  18.5000 Du        
  18880 ****        -5.0000 -16.7500  18.7500 Du        
  18881 ****        -5.0000 -16.7500  19.0000 Du        
  18882 ****        -5.0000 -16.7500  22.0000 Du        
  18883 ****        -5.0000 -16.7500  22.2500 Du        
  18884 ****        -5.0000 -16.7500  22.5000 Du        
  18885 ****        -5.0000 -16.7500  22.7500 Du        
  18886 ****        -5.0000 -16.7500  23.0000 Du        
  18887 ****        -5.0000 -16.7500  23.2500 Du        
  18888 ****        -5.0000 -16.7500  23.5000 Du        
  18889 ****        -5.0000 -16.7500  23.7500 Du        
  18890 ****        -5.0000 -16.7500  24.0000 Du        
  18891 ****        -5.0000 -16.7500  24.2500 Du        
  18892 ****        -5.0000 -16.5000  17.2500 Du        
  18893 ****        -5.0000 -16.5000  17.5000 Du        
  18894 ****        -5.0000 -16.5000  17.7500 Du        
  18895 ****        -5.0000 -16.5000  18.0000 Du        
  18896 ****        -5.0000 -16.5000  18.2500 Du        
  18897 ****        -5.0000 -16.5000  18.5000 Du        
  18898 ****        -5.0000 -16.5000  18.7500 Du        
  18899 ****        -5.0000 -16.5000  19.0000 Du        
  18900 ****        -5.0000 -16.5000  22.7500 Du        
  18901 ****        -5.0000 -16.5000  23.0000 Du        
  18902 ****        -5.0000 -16.5000  23.2500 Du        
  18903 ****        -5.0000 -16.5000  23.5000 Du        
  18904 ****        -5.0000 -16.5000  23.7500 Du        
  18905 ****        -5.0000 -16.5000  24.0000 Du        
  18906 ****        -5.0000 -16.5000  24.2500 Du        
  18907 ****        -5.0000 -16.2500  17.5000 Du        
  18908 ****        -5.0000 -16.2500  17.7500 Du        
  18909 ****        -5.0000 -16.2500  18.0000 Du        
  18910 ****        -5.0000 -16.2500  18.2500 Du        
  18911 ****        -5.0000 -16.2500  18.5000 Du        
  18912 ****        -5.0000 -16.2500  18.7500 Du        
  18913 ****        -5.0000 -16.2500  19.0000 Du        
  18914 ****        -5.0000 -16.2500  22.7500 Du        
  18915 ****        -5.0000 -16.2500  23.0000 Du        
  18916 ****        -5.0000 -16.2500  23.2500 Du        
  18917 ****        -5.0000 -16.2500  23.5000 Du        
  18918 ****        -5.0000 -16.2500  23.7500 Du        
  18919 ****        -5.0000 -16.2500  24.0000 Du        
  18920 ****        -5.0000 -16.2500  24.2500 Du        
  18921 ****        -5.0000 -16.0000  17.5000 Du        
  18922 ****        -5.0000 -16.0000  17.7500 Du        
  18923 ****        -5.0000 -16.0000  18.0000 Du        
  18924 ****        -5.0000 -16.0000  18.2500 Du        
  18925 ****        -5.0000 -16.0000  18.5000 Du        
  18926 ****        -5.0000 -16.0000  18.7500 Du        
  18927 ****        -5.0000 -16.0000  19.0000 Du        
  18928 ****        -5.0000 -16.0000  19.2500 Du        
  18929 ****        -5.0000 -16.0000  23.0000 Du        
  18930 ****        -5.0000 -16.0000  23.2500 Du        
  18931 ****        -5.0000 -16.0000  23.5000 Du        
  18932 ****        -5.0000 -16.0000  23.7500 Du        
  18933 ****        -5.0000 -16.0000  24.0000 Du        
  18934 ****        -5.0000 -16.0000  24.2500 Du        
  18935 ****        -5.0000 -15.7500  17.5000 Du        
  18936 ****        -5.0000 -15.7500  17.7500 Du        
  18937 ****        -5.0000 -15.7500  18.0000 Du        
  18938 ****        -5.0000 -15.7500  18.2500 Du        
  18939 ****        -5.0000 -15.7500  18.5000 Du        
  18940 ****        -5.0000 -15.7500  18.7500 Du        
  18941 ****        -5.0000 -15.7500  19.0000 Du        
  18942 ****        -5.0000 -15.7500  19.2500 Du        
  18943 ****        -5.0000 -15.7500  23.2500 Du        
  18944 ****        -5.0000 -15.7500  23.5000 Du        
  18945 ****        -5.0000 -15.7500  23.7500 Du        
  18946 ****        -5.0000 -15.7500  24.0000 Du        
  18947 ****        -5.0000 -15.5000  17.7500 Du        
  18948 ****        -5.0000 -15.5000  18.0000 Du        
  18949 ****        -5.0000 -15.5000  18.2500 Du        
  18950 ****        -5.0000 -15.5000  18.5000 Du        
  18951 ****        -5.0000 -15.5000  18.7500 Du        
  18952 ****        -5.0000 -15.5000  19.0000 Du        
  18953 ****        -5.0000 -15.5000  19.2500 Du        
  18954 ****        -5.0000 -15.2500  17.7500 Du        
  18955 ****        -5.0000 -15.2500  18.0000 Du        
  18956 ****        -5.0000 -15.2500  18.2500 Du        
  18957 ****        -5.0000 -15.2500  18.5000 Du        
  18958 ****        -5.0000 -15.2500  18.7500 Du        
  18959 ****        -5.0000 -15.2500  19.0000 Du        
  18960 ****        -5.0000 -15.2500  19.2500 Du        
  18961 ****        -5.0000 -15.2500  19.5000 Du        
  18962 ****        -5.0000 -15.0000  17.7500 Du        
  18963 ****        -5.0000 -15.0000  18.0000 Du        
  18964 ****        -5.0000 -15.0000  18.2500 Du        
  18965 ****        -5.0000 -15.0000  18.5000 Du        
  18966 ****        -5.0000 -15.0000  18.7500 Du        
  18967 ****        -5.0000 -15.0000  19.0000 Du        
  18968 ****        -5.0000 -15.0000  19.2500 Du        
  18969 ****        -5.0000  -9.2500  21.2500 Du        
  18970 ****        -5.0000  -9.0000  21.0000 Du        
  18971 ****        -5.0000  -9.0000  21.2500 Du        
  18972 ****        -5.0000  -9.0000  21.5000 Du        
  18973 ****        -5.0000  -8.7500  21.0000 Du        
  18974 ****        -5.0000  -8.7500  21.2500 Du        
  18975 ****        -5.0000  -8.7500  21.5000 Du        
  18976 ****        -5.0000  -8.7500  21.7500 Du        
  18977 ****        -5.0000  -8.5000  21.0000 Du        
  18978 ****        -5.0000  -8.5000  21.2500 Du        
  18979 ****        -5.0000  -8.2500  20.7500 Du        
  18980 ****        -5.0000  -8.2500  21.0000 Du        
  18981 ****        -5.0000  -8.2500  21.2500 Du        
  18982 ****        -5.0000  -8.2500  21.5000 Du        
  18983 ****        -5.0000  -8.0000  20.5000 Du        
  18984 ****        -5.0000  -8.0000  20.7500 Du        
  18985 ****        -5.0000  -8.0000  21.0000 Du        
  18986 ****        -5.0000  -8.0000  21.2500 Du        
  18987 ****        -5.0000  -8.0000  21.5000 Du        
  18988 ****        -5.0000  -7.7500  20.2500 Du        
  18989 ****        -5.0000  -7.7500  20.5000 Du        
  18990 ****        -5.0000  -7.7500  20.7500 Du        
  18991 ****        -5.0000  -7.7500  21.0000 Du        
  18992 ****        -5.0000  -7.7500  21.2500 Du        
  18993 ****        -5.0000  -7.7500  21.5000 Du        
  18994 ****        -5.0000  -7.5000  20.2500 Du        
  18995 ****        -5.0000  -7.5000  20.5000 Du        
  18996 ****        -5.0000  -7.5000  20.7500 Du        
  18997 ****        -5.0000  -7.5000  21.0000 Du        
  18998 ****        -5.0000  -7.5000  21.2500 Du        
  18999 ****        -5.0000  -7.5000  21.5000 Du        
  19000 ****        -5.0000  -7.2500  20.7500 Du        
  19001 ****        -5.0000  -7.2500  21.0000 Du        
  19002 ****        -5.0000  -7.2500  21.2500 Du        
  19003 ****        -5.0000  -2.0000  19.2500 Du        
  19004 ****        -5.0000  -1.7500  19.7500 Du        
  19005 ****        -5.0000  -1.7500  20.0000 Du        
  19006 ****        -5.0000  -1.7500  20.2500 Du        
  19007 ****        -5.0000  -1.5000  20.2500 Du        
  19008 ****        -5.0000  -1.5000  20.5000 Du        
  19009 ****        -5.0000  -1.5000  20.7500 Du        
  19010 ****        -5.0000  -1.5000  21.0000 Du        
  19011 ****        -5.0000  -1.2500  20.2500 Du        
  19012 ****        -5.0000  -1.2500  20.5000 Du        
  19013 ****        -5.0000  -1.2500  20.7500 Du        
  19014 ****        -5.0000  -1.2500  21.0000 Du        
  19015 ****        -5.0000  -1.2500  21.2500 Du        
  19016 ****        -5.0000  -1.0000  20.2500 Du        
  19017 ****        -5.0000  -1.0000  20.5000 Du        
  19018 ****        -5.0000  -1.0000  20.7500 Du        
  19019 ****        -5.0000  -1.0000  21.0000 Du        
  19020 ****        -5.0000   4.5000  10.0000 Du        
  19021 ****        -5.0000   4.7500  10.0000 Du        
  19022 ****        -5.0000   4.7500  10.2500 Du        
  19023 ****        -5.0000   4.7500  10.5000 Du        
  19024 ****        -5.0000   5.0000  10.0000 Du        
  19025 ****        -5.0000   5.0000  10.2500 Du        
  19026 ****        -5.0000   5.0000  10.5000 Du        
  19027 ****        -5.0000   5.0000  10.7500 Du        
  19028 ****        -5.0000   5.0000  11.0000 Du        
  19029 ****        -5.0000   5.2500  10.0000 Du        
  19030 ****        -5.0000   5.2500  10.2500 Du        
  19031 ****        -5.0000   5.2500  10.5000 Du        
  19032 ****        -5.0000   5.2500  10.7500 Du        
  19033 ****        -5.0000   5.2500  11.0000 Du        
  19034 ****        -5.0000   5.2500  11.2500 Du        
  19035 ****        -5.0000   5.2500  11.5000 Du        
  19036 ****        -5.0000   5.5000  10.0000 Du        
  19037 ****        -5.0000   5.5000  10.2500 Du        
  19038 ****        -5.0000   5.5000  10.5000 Du        
  19039 ****        -5.0000   5.5000  10.7500 Du        
  19040 ****        -5.0000   5.5000  11.0000 Du        
  19041 ****        -5.0000   5.5000  11.2500 Du        
  19042 ****        -5.0000   5.5000  11.5000 Du        
  19043 ****        -5.0000   5.7500  10.0000 Du        
  19044 ****        -5.0000   5.7500  10.2500 Du        
  19045 ****        -5.0000   5.7500  10.5000 Du        
  19046 ****        -5.0000   5.7500  10.7500 Du        
  19047 ****        -5.0000   5.7500  11.0000 Du        
  19048 ****        -5.0000   5.7500  11.2500 Du        
  19049 ****        -5.0000   5.7500  11.5000 Du        
  19050 ****        -5.0000   6.0000  10.0000 Du        
  19051 ****        -5.0000   6.0000  10.2500 Du        
  19052 ****        -5.0000   6.0000  10.5000 Du        
  19053 ****        -5.0000   6.0000  10.7500 Du        
  19054 ****        -5.0000   6.0000  11.0000 Du        
  19055 ****        -5.0000   6.0000  11.2500 Du        
  19056 ****        -5.0000   6.0000  11.5000 Du        
  19057 ****        -5.0000   6.2500  10.0000 Du        
  19058 ****        -5.0000   6.2500  10.2500 Du        
  19059 ****        -5.0000   6.2500  10.5000 Du        
  19060 ****        -5.0000   6.2500  10.7500 Du        
  19061 ****        -5.0000   6.2500  11.0000 Du        
  19062 ****        -5.0000   6.2500  11.2500 Du        
  19063 ****        -5.0000   6.5000  10.0000 Du        
  19064 ****        -5.0000   6.5000  10.2500 Du        
  19065 ****        -5.0000   6.5000  10.5000 Du        
  19066 ****        -5.0000   6.5000  10.7500 Du        
  19067 ****        -5.0000   6.5000  11.0000 Du        
  19068 ****        -5.0000   6.7500  10.0000 Du        
  19069 ****        -5.0000   6.7500  10.2500 Du        
  19070 ****        -5.0000   6.7500  10.5000 Du        
  19071 ****        -5.0000   6.7500  10.7500 Du        
  19072 ****        -5.0000   6.7500  11.0000 Du        
  19073 ****        -5.0000   7.0000  10.2500 Du        
  19074 ****        -5.0000   7.0000  10.5000 Du        
  19075 ****        -5.0000   7.0000  10.7500 Du        
  19076 ****        -5.0000   7.0000  11.0000 Du        
  19077 ****        -5.0000   7.2500  10.5000 Du        
  19078 ****        -5.0000   7.2500  10.7500 Du        
  19079 ****        -5.0000  12.7500  28.0000 Du        
  19080 ****        -5.0000  12.7500  28.2500 Du        
  19081 ****        -5.0000  13.0000  28.0000 Du        
  19082 ****        -5.0000  13.0000  28.2500 Du        
  19083 ****        -5.0000  13.0000  28.5000 Du        
  19084 ****        -5.0000  13.0000  28.7500 Du        
  19085 ****        -5.0000  13.0000  29.0000 Du        
  19086 ****        -5.0000  13.0000  29.2500 Du        
  19087 ****        -5.0000  13.2500  28.2500 Du        
  19088 ****        -5.0000  13.2500  28.5000 Du        
  19089 ****        -5.0000  13.2500  28.7500 Du        
  19090 ****        -5.0000  13.2500  29.0000 Du        
  19091 ****        -5.0000  13.2500  29.2500 Du        
  19092 ****        -5.0000  13.5000  28.2500 Du        
  19093 ****        -5.0000  13.5000  28.5000 Du        
  19094 ****        -5.0000  13.5000  28.7500 Du        
  19095 ****        -5.0000  13.5000  29.0000 Du        
  19096 ****        -5.0000  13.5000  29.2500 Du        
  19097 ****        -5.0000  13.7500  28.5000 Du        
  19098 ****        -5.0000  13.7500  28.7500 Du        
  19099 ****        -5.0000  13.7500  29.0000 Du        
  19100 ****        -5.0000  14.0000  28.7500 Du        
  19101 ****        -5.0000  14.0000  29.0000 Du        
  19102 ****        -4.7500 -20.2500  18.0000 Du        
  19103 ****        -4.7500 -20.2500  18.2500 Du        
  19104 ****        -4.7500 -20.2500  18.5000 Du        
  19105 ****        -4.7500 -20.2500  18.7500 Du        
  19106 ****        -4.7500 -20.2500  19.0000 Du        
  19107 ****        -4.7500 -20.0000  17.5000 Du        
  19108 ****        -4.7500 -20.0000  17.7500 Du        
  19109 ****        -4.7500 -20.0000  18.0000 Du        
  19110 ****        -4.7500 -20.0000  18.2500 Du        
  19111 ****        -4.7500 -20.0000  18.5000 Du        
  19112 ****        -4.7500 -20.0000  18.7500 Du        
  19113 ****        -4.7500 -20.0000  19.0000 Du        
  19114 ****        -4.7500 -20.0000  19.2500 Du        
  19115 ****        -4.7500 -19.7500  17.5000 Du        
  19116 ****        -4.7500 -19.7500  17.7500 Du        
  19117 ****        -4.7500 -19.7500  18.0000 Du        
  19118 ****        -4.7500 -19.7500  18.2500 Du        
  19119 ****        -4.7500 -19.7500  18.5000 Du        
  19120 ****        -4.7500 -19.7500  18.7500 Du        
  19121 ****        -4.7500 -19.7500  19.0000 Du        
  19122 ****        -4.7500 -19.5000  17.5000 Du        
  19123 ****        -4.7500 -19.5000  17.7500 Du        
  19124 ****        -4.7500 -19.5000  18.0000 Du        
  19125 ****        -4.7500 -19.5000  18.2500 Du        
  19126 ****        -4.7500 -19.5000  18.5000 Du        
  19127 ****        -4.7500 -19.5000  18.7500 Du        
  19128 ****        -4.7500 -19.5000  19.0000 Du        
  19129 ****        -4.7500 -19.2500  17.5000 Du        
  19130 ****        -4.7500 -19.2500  17.7500 Du        
  19131 ****        -4.7500 -19.2500  18.0000 Du        
  19132 ****        -4.7500 -19.2500  18.2500 Du        
  19133 ****        -4.7500 -19.2500  18.5000 Du        
  19134 ****        -4.7500 -19.2500  18.7500 Du        
  19135 ****        -4.7500 -19.0000  17.5000 Du        
  19136 ****        -4.7500 -19.0000  17.7500 Du        
  19137 ****        -4.7500 -19.0000  18.0000 Du        
  19138 ****        -4.7500 -19.0000  18.2500 Du        
  19139 ****        -4.7500 -19.0000  18.5000 Du        
  19140 ****        -4.7500 -19.0000  18.7500 Du        
  19141 ****        -4.7500 -19.0000  23.7500 Du        
  19142 ****        -4.7500 -19.0000  24.0000 Du        
  19143 ****        -4.7500 -19.0000  24.2500 Du        
  19144 ****        -4.7500 -18.7500  17.5000 Du        
  19145 ****        -4.7500 -18.7500  17.7500 Du        
  19146 ****        -4.7500 -18.7500  18.0000 Du        
  19147 ****        -4.7500 -18.7500  18.2500 Du        
  19148 ****        -4.7500 -18.7500  18.5000 Du        
  19149 ****        -4.7500 -18.7500  23.5000 Du        
  19150 ****        -4.7500 -18.7500  23.7500 Du        
  19151 ****        -4.7500 -18.7500  24.0000 Du        
  19152 ****        -4.7500 -18.7500  24.2500 Du        
  19153 ****        -4.7500 -18.5000  17.5000 Du        
  19154 ****        -4.7500 -18.5000  17.7500 Du        
  19155 ****        -4.7500 -18.5000  18.0000 Du        
  19156 ****        -4.7500 -18.5000  18.2500 Du        
  19157 ****        -4.7500 -18.5000  18.5000 Du        
  19158 ****        -4.7500 -18.5000  23.0000 Du        
  19159 ****        -4.7500 -18.5000  23.2500 Du        
  19160 ****        -4.7500 -18.5000  23.5000 Du        
  19161 ****        -4.7500 -18.5000  23.7500 Du        
  19162 ****        -4.7500 -18.5000  24.0000 Du        
  19163 ****        -4.7500 -18.5000  24.2500 Du        
  19164 ****        -4.7500 -18.2500  17.5000 Du        
  19165 ****        -4.7500 -18.2500  17.7500 Du        
  19166 ****        -4.7500 -18.2500  18.0000 Du        
  19167 ****        -4.7500 -18.2500  18.2500 Du        
  19168 ****        -4.7500 -18.2500  22.7500 Du        
  19169 ****        -4.7500 -18.2500  23.0000 Du        
  19170 ****        -4.7500 -18.2500  23.2500 Du        
  19171 ****        -4.7500 -18.2500  23.5000 Du        
  19172 ****        -4.7500 -18.2500  23.7500 Du        
  19173 ****        -4.7500 -18.2500  24.0000 Du        
  19174 ****        -4.7500 -18.2500  24.2500 Du        
  19175 ****        -4.7500 -18.0000  17.2500 Du        
  19176 ****        -4.7500 -18.0000  17.5000 Du        
  19177 ****        -4.7500 -18.0000  17.7500 Du        
  19178 ****        -4.7500 -18.0000  18.0000 Du        
  19179 ****        -4.7500 -18.0000  18.2500 Du        
  19180 ****        -4.7500 -18.0000  22.7500 Du        
  19181 ****        -4.7500 -18.0000  23.0000 Du        
  19182 ****        -4.7500 -18.0000  23.2500 Du        
  19183 ****        -4.7500 -18.0000  23.5000 Du        
  19184 ****        -4.7500 -18.0000  23.7500 Du        
  19185 ****        -4.7500 -18.0000  24.0000 Du        
  19186 ****        -4.7500 -18.0000  24.2500 Du        
  19187 ****        -4.7500 -17.7500  17.2500 Du        
  19188 ****        -4.7500 -17.7500  17.5000 Du        
  19189 ****        -4.7500 -17.7500  17.7500 Du        
  19190 ****        -4.7500 -17.7500  18.0000 Du        
  19191 ****        -4.7500 -17.7500  18.2500 Du        
  19192 ****        -4.7500 -17.7500  22.5000 Du        
  19193 ****        -4.7500 -17.7500  22.7500 Du        
  19194 ****        -4.7500 -17.7500  23.0000 Du        
  19195 ****        -4.7500 -17.7500  23.2500 Du        
  19196 ****        -4.7500 -17.7500  23.5000 Du        
  19197 ****        -4.7500 -17.7500  23.7500 Du        
  19198 ****        -4.7500 -17.7500  24.0000 Du        
  19199 ****        -4.7500 -17.7500  24.2500 Du        
  19200 ****        -4.7500 -17.5000  17.2500 Du        
  19201 ****        -4.7500 -17.5000  17.5000 Du        
  19202 ****        -4.7500 -17.5000  17.7500 Du        
  19203 ****        -4.7500 -17.5000  18.0000 Du        
  19204 ****        -4.7500 -17.5000  18.2500 Du        
  19205 ****        -4.7500 -17.5000  22.5000 Du        
  19206 ****        -4.7500 -17.5000  22.7500 Du        
  19207 ****        -4.7500 -17.5000  23.0000 Du        
  19208 ****        -4.7500 -17.5000  23.2500 Du        
  19209 ****        -4.7500 -17.5000  23.5000 Du        
  19210 ****        -4.7500 -17.5000  23.7500 Du        
  19211 ****        -4.7500 -17.5000  24.0000 Du        
  19212 ****        -4.7500 -17.5000  24.2500 Du        
  19213 ****        -4.7500 -17.2500  17.0000 Du        
  19214 ****        -4.7500 -17.2500  17.2500 Du        
  19215 ****        -4.7500 -17.2500  17.5000 Du        
  19216 ****        -4.7500 -17.2500  17.7500 Du        
  19217 ****        -4.7500 -17.2500  18.0000 Du        
  19218 ****        -4.7500 -17.2500  18.2500 Du        
  19219 ****        -4.7500 -17.2500  22.5000 Du        
  19220 ****        -4.7500 -17.2500  22.7500 Du        
  19221 ****        -4.7500 -17.2500  23.0000 Du        
  19222 ****        -4.7500 -17.2500  23.2500 Du        
  19223 ****        -4.7500 -17.2500  23.5000 Du        
  19224 ****        -4.7500 -17.2500  23.7500 Du        
  19225 ****        -4.7500 -17.2500  24.0000 Du        
  19226 ****        -4.7500 -17.2500  24.2500 Du        
  19227 ****        -4.7500 -17.0000  17.0000 Du        
  19228 ****        -4.7500 -17.0000  17.2500 Du        
  19229 ****        -4.7500 -17.0000  17.5000 Du        
  19230 ****        -4.7500 -17.0000  17.7500 Du        
  19231 ****        -4.7500 -17.0000  18.0000 Du        
  19232 ****        -4.7500 -17.0000  18.2500 Du        
  19233 ****        -4.7500 -17.0000  18.5000 Du        
  19234 ****        -4.7500 -17.0000  22.2500 Du        
  19235 ****        -4.7500 -17.0000  22.5000 Du        
  19236 ****        -4.7500 -17.0000  22.7500 Du        
  19237 ****        -4.7500 -17.0000  23.0000 Du        
  19238 ****        -4.7500 -17.0000  23.2500 Du        
  19239 ****        -4.7500 -17.0000  23.5000 Du        
  19240 ****        -4.7500 -17.0000  23.7500 Du        
  19241 ****        -4.7500 -17.0000  24.0000 Du        
  19242 ****        -4.7500 -17.0000  24.2500 Du        
  19243 ****        -4.7500 -16.7500  17.2500 Du        
  19244 ****        -4.7500 -16.7500  17.5000 Du        
  19245 ****        -4.7500 -16.7500  17.7500 Du        
  19246 ****        -4.7500 -16.7500  18.0000 Du        
  19247 ****        -4.7500 -16.7500  18.2500 Du        
  19248 ****        -4.7500 -16.7500  18.5000 Du        
  19249 ****        -4.7500 -16.7500  18.7500 Du        
  19250 ****        -4.7500 -16.7500  22.2500 Du        
  19251 ****        -4.7500 -16.7500  22.5000 Du        
  19252 ****        -4.7500 -16.7500  22.7500 Du        
  19253 ****        -4.7500 -16.7500  23.0000 Du        
  19254 ****        -4.7500 -16.7500  23.2500 Du        
  19255 ****        -4.7500 -16.7500  23.5000 Du        
  19256 ****        -4.7500 -16.7500  23.7500 Du        
  19257 ****        -4.7500 -16.7500  24.0000 Du        
  19258 ****        -4.7500 -16.7500  24.2500 Du        
  19259 ****        -4.7500 -16.5000  17.2500 Du        
  19260 ****        -4.7500 -16.5000  17.5000 Du        
  19261 ****        -4.7500 -16.5000  17.7500 Du        
  19262 ****        -4.7500 -16.5000  18.0000 Du        
  19263 ****        -4.7500 -16.5000  18.2500 Du        
  19264 ****        -4.7500 -16.5000  18.5000 Du        
  19265 ****        -4.7500 -16.5000  18.7500 Du        
  19266 ****        -4.7500 -16.5000  22.7500 Du        
  19267 ****        -4.7500 -16.5000  23.0000 Du        
  19268 ****        -4.7500 -16.5000  23.2500 Du        
  19269 ****        -4.7500 -16.5000  23.5000 Du        
  19270 ****        -4.7500 -16.5000  23.7500 Du        
  19271 ****        -4.7500 -16.5000  24.0000 Du        
  19272 ****        -4.7500 -16.5000  24.2500 Du        
  19273 ****        -4.7500 -16.2500  17.5000 Du        
  19274 ****        -4.7500 -16.2500  17.7500 Du        
  19275 ****        -4.7500 -16.2500  18.0000 Du        
  19276 ****        -4.7500 -16.2500  18.2500 Du        
  19277 ****        -4.7500 -16.2500  18.5000 Du        
  19278 ****        -4.7500 -16.2500  18.7500 Du        
  19279 ****        -4.7500 -16.2500  19.0000 Du        
  19280 ****        -4.7500 -16.2500  22.7500 Du        
  19281 ****        -4.7500 -16.2500  23.0000 Du        
  19282 ****        -4.7500 -16.2500  23.2500 Du        
  19283 ****        -4.7500 -16.2500  23.5000 Du        
  19284 ****        -4.7500 -16.2500  23.7500 Du        
  19285 ****        -4.7500 -16.2500  24.0000 Du        
  19286 ****        -4.7500 -16.2500  24.2500 Du        
  19287 ****        -4.7500 -16.0000  17.5000 Du        
  19288 ****        -4.7500 -16.0000  17.7500 Du        
  19289 ****        -4.7500 -16.0000  18.0000 Du        
  19290 ****        -4.7500 -16.0000  18.2500 Du        
  19291 ****        -4.7500 -16.0000  18.5000 Du        
  19292 ****        -4.7500 -16.0000  18.7500 Du        
  19293 ****        -4.7500 -16.0000  19.0000 Du        
  19294 ****        -4.7500 -16.0000  22.7500 Du        
  19295 ****        -4.7500 -16.0000  23.0000 Du        
  19296 ****        -4.7500 -16.0000  23.2500 Du        
  19297 ****        -4.7500 -16.0000  23.5000 Du        
  19298 ****        -4.7500 -16.0000  23.7500 Du        
  19299 ****        -4.7500 -16.0000  24.0000 Du        
  19300 ****        -4.7500 -16.0000  24.2500 Du        
  19301 ****        -4.7500 -15.7500  17.7500 Du        
  19302 ****        -4.7500 -15.7500  18.0000 Du        
  19303 ****        -4.7500 -15.7500  18.2500 Du        
  19304 ****        -4.7500 -15.7500  18.5000 Du        
  19305 ****        -4.7500 -15.7500  18.7500 Du        
  19306 ****        -4.7500 -15.7500  19.0000 Du        
  19307 ****        -4.7500 -15.7500  22.7500 Du        
  19308 ****        -4.7500 -15.7500  23.0000 Du        
  19309 ****        -4.7500 -15.7500  23.2500 Du        
  19310 ****        -4.7500 -15.7500  23.5000 Du        
  19311 ****        -4.7500 -15.7500  23.7500 Du        
  19312 ****        -4.7500 -15.7500  24.0000 Du        
  19313 ****        -4.7500 -15.5000  17.7500 Du        
  19314 ****        -4.7500 -15.5000  18.0000 Du        
  19315 ****        -4.7500 -15.5000  18.2500 Du        
  19316 ****        -4.7500 -15.5000  18.5000 Du        
  19317 ****        -4.7500 -15.5000  18.7500 Du        
  19318 ****        -4.7500 -15.5000  19.0000 Du        
  19319 ****        -4.7500 -15.2500  17.7500 Du        
  19320 ****        -4.7500 -15.2500  18.0000 Du        
  19321 ****        -4.7500 -15.2500  18.2500 Du        
  19322 ****        -4.7500 -15.2500  18.5000 Du        
  19323 ****        -4.7500 -15.2500  18.7500 Du        
  19324 ****        -4.7500 -15.2500  19.0000 Du        
  19325 ****        -4.7500 -15.0000  17.7500 Du        
  19326 ****        -4.7500 -15.0000  18.0000 Du        
  19327 ****        -4.7500 -15.0000  18.2500 Du        
  19328 ****        -4.7500 -15.0000  18.5000 Du        
  19329 ****        -4.7500 -15.0000  18.7500 Du        
  19330 ****        -4.7500 -15.0000  19.0000 Du        
  19331 ****        -4.7500  -9.0000  21.2500 Du        
  19332 ****        -4.7500  -8.7500  21.0000 Du        
  19333 ****        -4.7500  -8.7500  21.2500 Du        
  19334 ****        -4.7500  -8.5000  21.0000 Du        
  19335 ****        -4.7500  -8.5000  21.2500 Du        
  19336 ****        -4.7500  -8.2500  20.7500 Du        
  19337 ****        -4.7500  -8.2500  21.0000 Du        
  19338 ****        -4.7500  -8.2500  21.2500 Du        
  19339 ****        -4.7500  -8.0000  20.5000 Du        
  19340 ****        -4.7500  -8.0000  20.7500 Du        
  19341 ****        -4.7500  -8.0000  21.0000 Du        
  19342 ****        -4.7500  -8.0000  21.2500 Du        
  19343 ****        -4.7500  -7.7500  20.2500 Du        
  19344 ****        -4.7500  -7.7500  20.5000 Du        
  19345 ****        -4.7500  -7.7500  20.7500 Du        
  19346 ****        -4.7500  -7.7500  21.0000 Du        
  19347 ****        -4.7500  -7.7500  21.2500 Du        
  19348 ****        -4.7500  -7.5000  20.0000 Du        
  19349 ****        -4.7500  -7.5000  20.2500 Du        
  19350 ****        -4.7500  -7.5000  20.5000 Du        
  19351 ****        -4.7500  -7.5000  20.7500 Du        
  19352 ****        -4.7500  -7.5000  21.0000 Du        
  19353 ****        -4.7500  -7.5000  21.2500 Du        
  19354 ****        -4.7500  -7.2500  20.0000 Du        
  19355 ****        -4.7500  -7.2500  20.2500 Du        
  19356 ****        -4.7500  -7.2500  20.5000 Du        
  19357 ****        -4.7500  -7.2500  20.7500 Du        
  19358 ****        -4.7500  -7.2500  21.0000 Du        
  19359 ****        -4.7500  -7.0000  20.7500 Du        
  19360 ****        -4.7500  -7.0000  21.0000 Du        
  19361 ****        -4.7500  -2.5000  18.2500 Du        
  19362 ****        -4.7500  -2.5000  18.5000 Du        
  19363 ****        -4.7500  -2.2500  18.2500 Du        
  19364 ****        -4.7500  -2.2500  18.5000 Du        
  19365 ****        -4.7500  -2.2500  18.7500 Du        
  19366 ****        -4.7500  -2.2500  19.0000 Du        
  19367 ****        -4.7500  -2.2500  19.2500 Du        
  19368 ****        -4.7500  -2.0000  19.0000 Du        
  19369 ****        -4.7500  -2.0000  19.2500 Du        
  19370 ****        -4.7500  -2.0000  19.5000 Du        
  19371 ****        -4.7500  -2.0000  19.7500 Du        
  19372 ****        -4.7500  -1.7500  19.7500 Du        
  19373 ****        -4.7500  -1.7500  20.0000 Du        
  19374 ****        -4.7500  -1.7500  20.2500 Du        
  19375 ****        -4.7500  -1.5000  20.2500 Du        
  19376 ****        -4.7500  -1.5000  20.5000 Du        
  19377 ****        -4.7500  -1.2500  20.5000 Du        
  19378 ****        -4.7500  -1.2500  20.7500 Du        
  19379 ****        -4.7500   4.5000  10.0000 Du        
  19380 ****        -4.7500   4.7500  10.0000 Du        
  19381 ****        -4.7500   4.7500  10.2500 Du        
  19382 ****        -4.7500   4.7500  10.5000 Du        
  19383 ****        -4.7500   4.7500  10.7500 Du        
  19384 ****        -4.7500   5.0000  10.0000 Du        
  19385 ****        -4.7500   5.0000  10.2500 Du        
  19386 ****        -4.7500   5.0000  10.5000 Du        
  19387 ****        -4.7500   5.0000  10.7500 Du        
  19388 ****        -4.7500   5.0000  11.0000 Du        
  19389 ****        -4.7500   5.0000  11.2500 Du        
  19390 ****        -4.7500   5.2500  10.0000 Du        
  19391 ****        -4.7500   5.2500  10.2500 Du        
  19392 ****        -4.7500   5.2500  10.5000 Du        
  19393 ****        -4.7500   5.2500  10.7500 Du        
  19394 ****        -4.7500   5.2500  11.0000 Du        
  19395 ****        -4.7500   5.2500  11.2500 Du        
  19396 ****        -4.7500   5.2500  11.5000 Du        
  19397 ****        -4.7500   5.2500  11.7500 Du        
  19398 ****        -4.7500   5.5000  10.0000 Du        
  19399 ****        -4.7500   5.5000  10.2500 Du        
  19400 ****        -4.7500   5.5000  10.5000 Du        
  19401 ****        -4.7500   5.5000  10.7500 Du        
  19402 ****        -4.7500   5.5000  11.0000 Du        
  19403 ****        -4.7500   5.5000  11.2500 Du        
  19404 ****        -4.7500   5.5000  11.5000 Du        
  19405 ****        -4.7500   5.5000  11.7500 Du        
  19406 ****        -4.7500   5.7500  10.0000 Du        
  19407 ****        -4.7500   5.7500  10.2500 Du        
  19408 ****        -4.7500   5.7500  10.5000 Du        
  19409 ****        -4.7500   5.7500  10.7500 Du        
  19410 ****        -4.7500   5.7500  11.0000 Du        
  19411 ****        -4.7500   5.7500  11.2500 Du        
  19412 ****        -4.7500   5.7500  11.5000 Du        
  19413 ****        -4.7500   6.0000  10.0000 Du        
  19414 ****        -4.7500   6.0000  10.2500 Du        
  19415 ****        -4.7500   6.0000  10.5000 Du        
  19416 ****        -4.7500   6.0000  10.7500 Du        
  19417 ****        -4.7500   6.0000  11.0000 Du        
  19418 ****        -4.7500   6.0000  11.2500 Du        
  19419 ****        -4.7500   6.2500  10.0000 Du        
  19420 ****        -4.7500   6.2500  10.2500 Du        
  19421 ****        -4.7500   6.2500  10.5000 Du        
  19422 ****        -4.7500   6.2500  10.7500 Du        
  19423 ****        -4.7500   6.2500  11.0000 Du        
  19424 ****        -4.7500   6.2500  11.2500 Du        
  19425 ****        -4.7500   6.5000  10.2500 Du        
  19426 ****        -4.7500   6.5000  10.5000 Du        
  19427 ****        -4.7500   6.5000  10.7500 Du        
  19428 ****        -4.7500   6.5000  11.0000 Du        
  19429 ****        -4.7500   6.7500  10.2500 Du        
  19430 ****        -4.7500   6.7500  10.5000 Du        
  19431 ****        -4.7500   6.7500  10.7500 Du        
  19432 ****        -4.7500   6.7500  11.0000 Du        
  19433 ****        -4.7500   7.0000  10.5000 Du        
  19434 ****        -4.7500   7.0000  10.7500 Du        
  19435 ****        -4.7500   7.2500  10.5000 Du        
  19436 ****        -4.7500  13.2500  28.2500 Du        
  19437 ****        -4.7500  13.2500  28.5000 Du        
  19438 ****        -4.7500  13.5000  28.7500 Du        
  19439 ****        -4.5000 -20.0000  17.2500 Du        
  19440 ****        -4.5000 -20.0000  17.5000 Du        
  19441 ****        -4.5000 -20.0000  17.7500 Du        
  19442 ****        -4.5000 -20.0000  18.0000 Du        
  19443 ****        -4.5000 -20.0000  18.2500 Du        
  19444 ****        -4.5000 -20.0000  18.5000 Du        
  19445 ****        -4.5000 -20.0000  18.7500 Du        
  19446 ****        -4.5000 -19.7500  17.0000 Du        
  19447 ****        -4.5000 -19.7500  17.2500 Du        
  19448 ****        -4.5000 -19.7500  17.5000 Du        
  19449 ****        -4.5000 -19.7500  17.7500 Du        
  19450 ****        -4.5000 -19.7500  18.0000 Du        
  19451 ****        -4.5000 -19.7500  18.2500 Du        
  19452 ****        -4.5000 -19.7500  18.5000 Du        
  19453 ****        -4.5000 -19.7500  18.7500 Du        
  19454 ****        -4.5000 -19.5000  17.2500 Du        
  19455 ****        -4.5000 -19.5000  17.5000 Du        
  19456 ****        -4.5000 -19.5000  17.7500 Du        
  19457 ****        -4.5000 -19.5000  18.0000 Du        
  19458 ****        -4.5000 -19.5000  18.2500 Du        
  19459 ****        -4.5000 -19.5000  18.5000 Du        
  19460 ****        -4.5000 -19.2500  17.2500 Du        
  19461 ****        -4.5000 -19.2500  17.5000 Du        
  19462 ****        -4.5000 -19.2500  17.7500 Du        
  19463 ****        -4.5000 -19.2500  18.0000 Du        
  19464 ****        -4.5000 -19.2500  18.2500 Du        
  19465 ****        -4.5000 -19.2500  18.5000 Du        
  19466 ****        -4.5000 -19.2500  24.2500 Du        
  19467 ****        -4.5000 -19.2500  24.5000 Du        
  19468 ****        -4.5000 -19.0000  17.2500 Du        
  19469 ****        -4.5000 -19.0000  17.5000 Du        
  19470 ****        -4.5000 -19.0000  17.7500 Du        
  19471 ****        -4.5000 -19.0000  18.0000 Du        
  19472 ****        -4.5000 -19.0000  18.2500 Du        
  19473 ****        -4.5000 -19.0000  23.7500 Du        
  19474 ****        -4.5000 -19.0000  24.0000 Du        
  19475 ****        -4.5000 -19.0000  24.2500 Du        
  19476 ****        -4.5000 -19.0000  24.5000 Du        
  19477 ****        -4.5000 -18.7500  17.2500 Du        
  19478 ****        -4.5000 -18.7500  17.5000 Du        
  19479 ****        -4.5000 -18.7500  17.7500 Du        
  19480 ****        -4.5000 -18.7500  18.0000 Du        
  19481 ****        -4.5000 -18.7500  18.2500 Du        
  19482 ****        -4.5000 -18.7500  23.2500 Du        
  19483 ****        -4.5000 -18.7500  23.5000 Du        
  19484 ****        -4.5000 -18.7500  23.7500 Du        
  19485 ****        -4.5000 -18.7500  24.0000 Du        
  19486 ****        -4.5000 -18.7500  24.2500 Du        
  19487 ****        -4.5000 -18.7500  24.5000 Du        
  19488 ****        -4.5000 -18.5000  17.2500 Du        
  19489 ****        -4.5000 -18.5000  17.5000 Du        
  19490 ****        -4.5000 -18.5000  17.7500 Du        
  19491 ****        -4.5000 -18.5000  18.0000 Du        
  19492 ****        -4.5000 -18.5000  23.2500 Du        
  19493 ****        -4.5000 -18.5000  23.5000 Du        
  19494 ****        -4.5000 -18.5000  23.7500 Du        
  19495 ****        -4.5000 -18.5000  24.0000 Du        
  19496 ****        -4.5000 -18.5000  24.2500 Du        
  19497 ****        -4.5000 -18.5000  24.5000 Du        
  19498 ****        -4.5000 -18.2500  17.2500 Du        
  19499 ****        -4.5000 -18.2500  17.5000 Du        
  19500 ****        -4.5000 -18.2500  17.7500 Du        
  19501 ****        -4.5000 -18.2500  18.0000 Du        
  19502 ****        -4.5000 -18.2500  23.0000 Du        
  19503 ****        -4.5000 -18.2500  23.2500 Du        
  19504 ****        -4.5000 -18.2500  23.5000 Du        
  19505 ****        -4.5000 -18.2500  23.7500 Du        
  19506 ****        -4.5000 -18.2500  24.0000 Du        
  19507 ****        -4.5000 -18.2500  24.2500 Du        
  19508 ****        -4.5000 -18.2500  24.5000 Du        
  19509 ****        -4.5000 -18.0000  17.2500 Du        
  19510 ****        -4.5000 -18.0000  17.5000 Du        
  19511 ****        -4.5000 -18.0000  17.7500 Du        
  19512 ****        -4.5000 -18.0000  18.0000 Du        
  19513 ****        -4.5000 -18.0000  23.0000 Du        
  19514 ****        -4.5000 -18.0000  23.2500 Du        
  19515 ****        -4.5000 -18.0000  23.5000 Du        
  19516 ****        -4.5000 -18.0000  23.7500 Du        
  19517 ****        -4.5000 -18.0000  24.0000 Du        
  19518 ****        -4.5000 -18.0000  24.2500 Du        
  19519 ****        -4.5000 -18.0000  24.5000 Du        
  19520 ****        -4.5000 -17.7500  17.0000 Du        
  19521 ****        -4.5000 -17.7500  17.2500 Du        
  19522 ****        -4.5000 -17.7500  17.5000 Du        
  19523 ****        -4.5000 -17.7500  17.7500 Du        
  19524 ****        -4.5000 -17.7500  18.0000 Du        
  19525 ****        -4.5000 -17.7500  23.0000 Du        
  19526 ****        -4.5000 -17.7500  23.2500 Du        
  19527 ****        -4.5000 -17.7500  23.5000 Du        
  19528 ****        -4.5000 -17.7500  23.7500 Du        
  19529 ****        -4.5000 -17.7500  24.0000 Du        
  19530 ****        -4.5000 -17.7500  24.2500 Du        
  19531 ****        -4.5000 -17.5000  17.2500 Du        
  19532 ****        -4.5000 -17.5000  17.5000 Du        
  19533 ****        -4.5000 -17.5000  17.7500 Du        
  19534 ****        -4.5000 -17.5000  22.7500 Du        
  19535 ****        -4.5000 -17.5000  23.0000 Du        
  19536 ****        -4.5000 -17.5000  23.2500 Du        
  19537 ****        -4.5000 -17.5000  23.5000 Du        
  19538 ****        -4.5000 -17.5000  23.7500 Du        
  19539 ****        -4.5000 -17.5000  24.0000 Du        
  19540 ****        -4.5000 -17.5000  24.2500 Du        
  19541 ****        -4.5000 -17.2500  17.0000 Du        
  19542 ****        -4.5000 -17.2500  17.2500 Du        
  19543 ****        -4.5000 -17.2500  17.5000 Du        
  19544 ****        -4.5000 -17.2500  17.7500 Du        
  19545 ****        -4.5000 -17.2500  22.7500 Du        
  19546 ****        -4.5000 -17.2500  23.0000 Du        
  19547 ****        -4.5000 -17.2500  23.2500 Du        
  19548 ****        -4.5000 -17.2500  23.5000 Du        
  19549 ****        -4.5000 -17.2500  23.7500 Du        
  19550 ****        -4.5000 -17.2500  24.0000 Du        
  19551 ****        -4.5000 -17.2500  24.2500 Du        
  19552 ****        -4.5000 -17.0000  17.2500 Du        
  19553 ****        -4.5000 -17.0000  17.5000 Du        
  19554 ****        -4.5000 -17.0000  17.7500 Du        
  19555 ****        -4.5000 -17.0000  22.5000 Du        
  19556 ****        -4.5000 -17.0000  22.7500 Du        
  19557 ****        -4.5000 -17.0000  23.0000 Du        
  19558 ****        -4.5000 -17.0000  23.2500 Du        
  19559 ****        -4.5000 -17.0000  23.5000 Du        
  19560 ****        -4.5000 -17.0000  23.7500 Du        
  19561 ****        -4.5000 -17.0000  24.0000 Du        
  19562 ****        -4.5000 -17.0000  24.2500 Du        
  19563 ****        -4.5000 -17.0000  24.5000 Du        
  19564 ****        -4.5000 -16.7500  17.2500 Du        
  19565 ****        -4.5000 -16.7500  17.5000 Du        
  19566 ****        -4.5000 -16.7500  17.7500 Du        
  19567 ****        -4.5000 -16.7500  18.0000 Du        
  19568 ****        -4.5000 -16.7500  22.5000 Du        
  19569 ****        -4.5000 -16.7500  22.7500 Du        
  19570 ****        -4.5000 -16.7500  23.0000 Du        
  19571 ****        -4.5000 -16.7500  23.2500 Du        
  19572 ****        -4.5000 -16.7500  23.5000 Du        
  19573 ****        -4.5000 -16.7500  23.7500 Du        
  19574 ****        -4.5000 -16.7500  24.0000 Du        
  19575 ****        -4.5000 -16.7500  24.2500 Du        
  19576 ****        -4.5000 -16.7500  24.5000 Du        
  19577 ****        -4.5000 -16.5000  17.5000 Du        
  19578 ****        -4.5000 -16.5000  17.7500 Du        
  19579 ****        -4.5000 -16.5000  18.0000 Du        
  19580 ****        -4.5000 -16.5000  18.2500 Du        
  19581 ****        -4.5000 -16.5000  22.5000 Du        
  19582 ****        -4.5000 -16.5000  22.7500 Du        
  19583 ****        -4.5000 -16.5000  23.0000 Du        
  19584 ****        -4.5000 -16.5000  23.2500 Du        
  19585 ****        -4.5000 -16.5000  23.5000 Du        
  19586 ****        -4.5000 -16.5000  23.7500 Du        
  19587 ****        -4.5000 -16.5000  24.0000 Du        
  19588 ****        -4.5000 -16.5000  24.2500 Du        
  19589 ****        -4.5000 -16.2500  17.5000 Du        
  19590 ****        -4.5000 -16.2500  17.7500 Du        
  19591 ****        -4.5000 -16.2500  18.0000 Du        
  19592 ****        -4.5000 -16.2500  18.2500 Du        
  19593 ****        -4.5000 -16.2500  18.5000 Du        
  19594 ****        -4.5000 -16.2500  22.0000 Du        
  19595 ****        -4.5000 -16.2500  22.2500 Du        
  19596 ****        -4.5000 -16.2500  22.5000 Du        
  19597 ****        -4.5000 -16.2500  22.7500 Du        
  19598 ****        -4.5000 -16.2500  23.0000 Du        
  19599 ****        -4.5000 -16.2500  23.2500 Du        
  19600 ****        -4.5000 -16.2500  23.5000 Du        
  19601 ****        -4.5000 -16.2500  23.7500 Du        
  19602 ****        -4.5000 -16.2500  24.0000 Du        
  19603 ****        -4.5000 -16.2500  24.2500 Du        
  19604 ****        -4.5000 -16.0000  17.7500 Du        
  19605 ****        -4.5000 -16.0000  18.0000 Du        
  19606 ****        -4.5000 -16.0000  18.2500 Du        
  19607 ****        -4.5000 -16.0000  18.5000 Du        
  19608 ****        -4.5000 -16.0000  22.0000 Du        
  19609 ****        -4.5000 -16.0000  22.2500 Du        
  19610 ****        -4.5000 -16.0000  22.5000 Du        
  19611 ****        -4.5000 -16.0000  22.7500 Du        
  19612 ****        -4.5000 -16.0000  23.0000 Du        
  19613 ****        -4.5000 -16.0000  23.2500 Du        
  19614 ****        -4.5000 -16.0000  23.5000 Du        
  19615 ****        -4.5000 -16.0000  23.7500 Du        
  19616 ****        -4.5000 -16.0000  24.0000 Du        
  19617 ****        -4.5000 -16.0000  24.2500 Du        
  19618 ****        -4.5000 -15.7500  17.7500 Du        
  19619 ****        -4.5000 -15.7500  18.0000 Du        
  19620 ****        -4.5000 -15.7500  18.2500 Du        
  19621 ****        -4.5000 -15.7500  18.5000 Du        
  19622 ****        -4.5000 -15.7500  18.7500 Du        
  19623 ****        -4.5000 -15.7500  22.2500 Du        
  19624 ****        -4.5000 -15.7500  22.5000 Du        
  19625 ****        -4.5000 -15.7500  22.7500 Du        
  19626 ****        -4.5000 -15.7500  23.0000 Du        
  19627 ****        -4.5000 -15.7500  23.2500 Du        
  19628 ****        -4.5000 -15.7500  23.5000 Du        
  19629 ****        -4.5000 -15.7500  23.7500 Du        
  19630 ****        -4.5000 -15.7500  24.0000 Du        
  19631 ****        -4.5000 -15.5000  17.7500 Du        
  19632 ****        -4.5000 -15.5000  18.0000 Du        
  19633 ****        -4.5000 -15.5000  18.2500 Du        
  19634 ****        -4.5000 -15.5000  18.5000 Du        
  19635 ****        -4.5000 -15.5000  18.7500 Du        
  19636 ****        -4.5000 -15.5000  19.0000 Du        
  19637 ****        -4.5000 -15.5000  23.0000 Du        
  19638 ****        -4.5000 -15.5000  23.2500 Du        
  19639 ****        -4.5000 -15.5000  23.5000 Du        
  19640 ****        -4.5000 -15.5000  23.7500 Du        
  19641 ****        -4.5000 -15.2500  17.7500 Du        
  19642 ****        -4.5000 -15.2500  18.0000 Du        
  19643 ****        -4.5000 -15.2500  18.2500 Du        
  19644 ****        -4.5000 -15.2500  18.5000 Du        
  19645 ****        -4.5000 -15.2500  18.7500 Du        
  19646 ****        -4.5000 -15.2500  19.0000 Du        
  19647 ****        -4.5000 -15.2500  23.0000 Du        
  19648 ****        -4.5000 -15.2500  23.5000 Du        
  19649 ****        -4.5000 -15.0000  17.7500 Du        
  19650 ****        -4.5000 -15.0000  18.0000 Du        
  19651 ****        -4.5000 -15.0000  18.2500 Du        
  19652 ****        -4.5000 -15.0000  18.7500 Du        
  19653 ****        -4.5000  -8.5000  21.0000 Du        
  19654 ****        -4.5000  -8.5000  21.2500 Du        
  19655 ****        -4.5000  -8.2500  20.7500 Du        
  19656 ****        -4.5000  -8.2500  21.0000 Du        
  19657 ****        -4.5000  -8.2500  21.2500 Du        
  19658 ****        -4.5000  -8.0000  20.2500 Du        
  19659 ****        -4.5000  -8.0000  20.5000 Du        
  19660 ****        -4.5000  -8.0000  20.7500 Du        
  19661 ****        -4.5000  -8.0000  21.0000 Du        
  19662 ****        -4.5000  -8.0000  21.2500 Du        
  19663 ****        -4.5000  -7.7500  20.0000 Du        
  19664 ****        -4.5000  -7.7500  20.2500 Du        
  19665 ****        -4.5000  -7.7500  20.5000 Du        
  19666 ****        -4.5000  -7.7500  20.7500 Du        
  19667 ****        -4.5000  -7.7500  21.0000 Du        
  19668 ****        -4.5000  -7.7500  21.2500 Du        
  19669 ****        -4.5000  -7.5000  20.0000 Du        
  19670 ****        -4.5000  -7.5000  20.2500 Du        
  19671 ****        -4.5000  -7.5000  20.5000 Du        
  19672 ****        -4.5000  -7.5000  20.7500 Du        
  19673 ****        -4.5000  -7.5000  21.0000 Du        
  19674 ****        -4.5000  -7.2500  20.0000 Du        
  19675 ****        -4.5000  -7.2500  20.2500 Du        
  19676 ****        -4.5000  -7.2500  20.5000 Du        
  19677 ****        -4.5000  -7.2500  20.7500 Du        
  19678 ****        -4.5000  -7.2500  21.0000 Du        
  19679 ****        -4.5000  -7.0000  20.0000 Du        
  19680 ****        -4.5000  -7.0000  20.2500 Du        
  19681 ****        -4.5000  -2.7500  18.5000 Du        
  19682 ****        -4.5000  -2.5000  18.2500 Du        
  19683 ****        -4.5000  -2.5000  18.5000 Du        
  19684 ****        -4.5000  -2.5000  18.7500 Du        
  19685 ****        -4.5000  -2.5000  19.0000 Du        
  19686 ****        -4.5000  -2.2500  18.2500 Du        
  19687 ****        -4.5000  -2.2500  18.5000 Du        
  19688 ****        -4.5000  -2.2500  18.7500 Du        
  19689 ****        -4.5000  -2.2500  19.0000 Du        
  19690 ****        -4.5000  -2.2500  19.2500 Du        
  19691 ****        -4.5000  -2.0000  19.2500 Du        
  19692 ****        -4.5000   4.7500  10.0000 Du        
  19693 ****        -4.5000   4.7500  10.2500 Du        
  19694 ****        -4.5000   4.7500  10.5000 Du        
  19695 ****        -4.5000   4.7500  10.7500 Du        
  19696 ****        -4.5000   5.0000  10.0000 Du        
  19697 ****        -4.5000   5.0000  10.2500 Du        
  19698 ****        -4.5000   5.0000  10.5000 Du        
  19699 ****        -4.5000   5.0000  10.7500 Du        
  19700 ****        -4.5000   5.0000  11.0000 Du        
  19701 ****        -4.5000   5.0000  11.2500 Du        
  19702 ****        -4.5000   5.0000  11.5000 Du        
  19703 ****        -4.5000   5.0000  11.7500 Du        
  19704 ****        -4.5000   5.2500  10.0000 Du        
  19705 ****        -4.5000   5.2500  10.2500 Du        
  19706 ****        -4.5000   5.2500  10.5000 Du        
  19707 ****        -4.5000   5.2500  10.7500 Du        
  19708 ****        -4.5000   5.2500  11.0000 Du        
  19709 ****        -4.5000   5.2500  11.2500 Du        
  19710 ****        -4.5000   5.2500  11.5000 Du        
  19711 ****        -4.5000   5.2500  11.7500 Du        
  19712 ****        -4.5000   5.5000  10.2500 Du        
  19713 ****        -4.5000   5.5000  10.5000 Du        
  19714 ****        -4.5000   5.5000  10.7500 Du        
  19715 ****        -4.5000   5.5000  11.0000 Du        
  19716 ****        -4.5000   5.5000  11.2500 Du        
  19717 ****        -4.5000   5.5000  11.5000 Du        
  19718 ****        -4.5000   5.7500  10.2500 Du        
  19719 ****        -4.5000   5.7500  10.5000 Du        
  19720 ****        -4.5000   5.7500  10.7500 Du        
  19721 ****        -4.5000   5.7500  11.0000 Du        
  19722 ****        -4.5000   5.7500  11.2500 Du        
  19723 ****        -4.5000   5.7500  11.5000 Du        
  19724 ****        -4.5000   6.0000  10.2500 Du        
  19725 ****        -4.5000   6.0000  10.5000 Du        
  19726 ****        -4.5000   6.0000  10.7500 Du        
  19727 ****        -4.5000   6.0000  11.0000 Du        
  19728 ****        -4.5000   6.0000  11.2500 Du        
  19729 ****        -4.5000   6.2500  10.5000 Du        
  19730 ****        -4.5000   6.2500  10.7500 Du        
  19731 ****        -4.5000   6.2500  11.0000 Du        
  19732 ****        -4.5000   6.5000  10.5000 Du        
  19733 ****        -4.5000   6.5000  10.7500 Du        
  19734 ****        -4.5000   6.7500  10.5000 Du        
  19735 ****        -4.5000   6.7500  10.7500 Du        
  19736 ****        -4.5000   7.0000  10.5000 Du        
  19737 ****        -4.2500 -20.0000  16.7500 Du        
  19738 ****        -4.2500 -20.0000  17.0000 Du        
  19739 ****        -4.2500 -20.0000  17.2500 Du        
  19740 ****        -4.2500 -20.0000  17.5000 Du        
  19741 ****        -4.2500 -20.0000  17.7500 Du        
  19742 ****        -4.2500 -20.0000  18.0000 Du        
  19743 ****        -4.2500 -20.0000  18.2500 Du        
  19744 ****        -4.2500 -19.7500  16.7500 Du        
  19745 ****        -4.2500 -19.7500  17.0000 Du        
  19746 ****        -4.2500 -19.7500  17.2500 Du        
  19747 ****        -4.2500 -19.7500  17.5000 Du        
  19748 ****        -4.2500 -19.7500  17.7500 Du        
  19749 ****        -4.2500 -19.7500  18.0000 Du        
  19750 ****        -4.2500 -19.7500  18.2500 Du        
  19751 ****        -4.2500 -19.7500  18.5000 Du        
  19752 ****        -4.2500 -19.5000  16.7500 Du        
  19753 ****        -4.2500 -19.5000  17.0000 Du        
  19754 ****        -4.2500 -19.5000  17.2500 Du        
  19755 ****        -4.2500 -19.5000  17.5000 Du        
  19756 ****        -4.2500 -19.5000  17.7500 Du        
  19757 ****        -4.2500 -19.5000  18.0000 Du        
  19758 ****        -4.2500 -19.5000  18.2500 Du        
  19759 ****        -4.2500 -19.5000  24.5000 Du        
  19760 ****        -4.2500 -19.5000  24.7500 Du        
  19761 ****        -4.2500 -19.2500  16.7500 Du        
  19762 ****        -4.2500 -19.2500  17.0000 Du        
  19763 ****        -4.2500 -19.2500  17.2500 Du        
  19764 ****        -4.2500 -19.2500  17.5000 Du        
  19765 ****        -4.2500 -19.2500  17.7500 Du        
  19766 ****        -4.2500 -19.2500  18.0000 Du        
  19767 ****        -4.2500 -19.2500  24.0000 Du        
  19768 ****        -4.2500 -19.2500  24.2500 Du        
  19769 ****        -4.2500 -19.2500  24.5000 Du        
  19770 ****        -4.2500 -19.2500  24.7500 Du        
  19771 ****        -4.2500 -19.0000  17.0000 Du        
  19772 ****        -4.2500 -19.0000  17.2500 Du        
  19773 ****        -4.2500 -19.0000  17.5000 Du        
  19774 ****        -4.2500 -19.0000  17.7500 Du        
  19775 ****        -4.2500 -19.0000  18.0000 Du        
  19776 ****        -4.2500 -19.0000  23.7500 Du        
  19777 ****        -4.2500 -19.0000  24.0000 Du        
  19778 ****        -4.2500 -19.0000  24.2500 Du        
  19779 ****        -4.2500 -19.0000  24.5000 Du        
  19780 ****        -4.2500 -19.0000  24.7500 Du        
  19781 ****        -4.2500 -18.7500  17.0000 Du        
  19782 ****        -4.2500 -18.7500  17.2500 Du        
  19783 ****        -4.2500 -18.7500  17.5000 Du        
  19784 ****        -4.2500 -18.7500  17.7500 Du        
  19785 ****        -4.2500 -18.7500  18.0000 Du        
  19786 ****        -4.2500 -18.7500  23.5000 Du        
  19787 ****        -4.2500 -18.7500  23.7500 Du        
  19788 ****        -4.2500 -18.7500  24.0000 Du        
  19789 ****        -4.2500 -18.7500  24.2500 Du        
  19790 ****        -4.2500 -18.7500  24.5000 Du        
  19791 ****        -4.2500 -18.7500  24.7500 Du        
  19792 ****        -4.2500 -18.5000  17.0000 Du        
  19793 ****        -4.2500 -18.5000  17.2500 Du        
  19794 ****        -4.2500 -18.5000  17.5000 Du        
  19795 ****        -4.2500 -18.5000  17.7500 Du        
  19796 ****        -4.2500 -18.5000  23.5000 Du        
  19797 ****        -4.2500 -18.5000  23.7500 Du        
  19798 ****        -4.2500 -18.5000  24.0000 Du        
  19799 ****        -4.2500 -18.5000  24.2500 Du        
  19800 ****        -4.2500 -18.5000  24.5000 Du        
  19801 ****        -4.2500 -18.5000  24.7500 Du        
  19802 ****        -4.2500 -18.2500  17.0000 Du        
  19803 ****        -4.2500 -18.2500  17.2500 Du        
  19804 ****        -4.2500 -18.2500  17.5000 Du        
  19805 ****        -4.2500 -18.2500  17.7500 Du        
  19806 ****        -4.2500 -18.2500  23.2500 Du        
  19807 ****        -4.2500 -18.2500  23.5000 Du        
  19808 ****        -4.2500 -18.2500  23.7500 Du        
  19809 ****        -4.2500 -18.2500  24.0000 Du        
  19810 ****        -4.2500 -18.2500  24.2500 Du        
  19811 ****        -4.2500 -18.2500  24.5000 Du        
  19812 ****        -4.2500 -18.0000  17.0000 Du        
  19813 ****        -4.2500 -18.0000  17.2500 Du        
  19814 ****        -4.2500 -18.0000  17.5000 Du        
  19815 ****        -4.2500 -18.0000  17.7500 Du        
  19816 ****        -4.2500 -18.0000  23.2500 Du        
  19817 ****        -4.2500 -18.0000  23.5000 Du        
  19818 ****        -4.2500 -18.0000  23.7500 Du        
  19819 ****        -4.2500 -18.0000  24.0000 Du        
  19820 ****        -4.2500 -18.0000  24.2500 Du        
  19821 ****        -4.2500 -18.0000  24.5000 Du        
  19822 ****        -4.2500 -17.7500  16.7500 Du        
  19823 ****        -4.2500 -17.7500  17.0000 Du        
  19824 ****        -4.2500 -17.7500  17.2500 Du        
  19825 ****        -4.2500 -17.7500  17.5000 Du        
  19826 ****        -4.2500 -17.7500  17.7500 Du        
  19827 ****        -4.2500 -17.7500  23.2500 Du        
  19828 ****        -4.2500 -17.7500  23.5000 Du        
  19829 ****        -4.2500 -17.7500  23.7500 Du        
  19830 ****        -4.2500 -17.7500  24.0000 Du        
  19831 ****        -4.2500 -17.7500  24.2500 Du        
  19832 ****        -4.2500 -17.7500  24.5000 Du        
  19833 ****        -4.2500 -17.5000  17.0000 Du        
  19834 ****        -4.2500 -17.5000  17.2500 Du        
  19835 ****        -4.2500 -17.5000  17.5000 Du        
  19836 ****        -4.2500 -17.5000  23.2500 Du        
  19837 ****        -4.2500 -17.5000  23.5000 Du        
  19838 ****        -4.2500 -17.5000  23.7500 Du        
  19839 ****        -4.2500 -17.5000  24.0000 Du        
  19840 ****        -4.2500 -17.5000  24.2500 Du        
  19841 ****        -4.2500 -17.5000  24.5000 Du        
  19842 ****        -4.2500 -17.2500  17.0000 Du        
  19843 ****        -4.2500 -17.2500  17.2500 Du        
  19844 ****        -4.2500 -17.2500  17.5000 Du        
  19845 ****        -4.2500 -17.2500  17.7500 Du        
  19846 ****        -4.2500 -17.2500  23.0000 Du        
  19847 ****        -4.2500 -17.2500  23.2500 Du        
  19848 ****        -4.2500 -17.2500  23.5000 Du        
  19849 ****        -4.2500 -17.2500  23.7500 Du        
  19850 ****        -4.2500 -17.2500  24.0000 Du        
  19851 ****        -4.2500 -17.2500  24.2500 Du        
  19852 ****        -4.2500 -17.2500  24.5000 Du        
  19853 ****        -4.2500 -17.0000  17.0000 Du        
  19854 ****        -4.2500 -17.0000  17.2500 Du        
  19855 ****        -4.2500 -17.0000  17.5000 Du        
  19856 ****        -4.2500 -17.0000  17.7500 Du        
  19857 ****        -4.2500 -17.0000  18.0000 Du        
  19858 ****        -4.2500 -17.0000  22.7500 Du        
  19859 ****        -4.2500 -17.0000  23.0000 Du        
  19860 ****        -4.2500 -17.0000  23.2500 Du        
  19861 ****        -4.2500 -17.0000  23.5000 Du        
  19862 ****        -4.2500 -17.0000  23.7500 Du        
  19863 ****        -4.2500 -17.0000  24.0000 Du        
  19864 ****        -4.2500 -17.0000  24.2500 Du        
  19865 ****        -4.2500 -17.0000  24.5000 Du        
  19866 ****        -4.2500 -16.7500  17.0000 Du        
  19867 ****        -4.2500 -16.7500  17.2500 Du        
  19868 ****        -4.2500 -16.7500  17.5000 Du        
  19869 ****        -4.2500 -16.7500  17.7500 Du        
  19870 ****        -4.2500 -16.7500  18.0000 Du        
  19871 ****        -4.2500 -16.7500  22.7500 Du        
  19872 ****        -4.2500 -16.7500  23.0000 Du        
  19873 ****        -4.2500 -16.7500  23.2500 Du        
  19874 ****        -4.2500 -16.7500  23.5000 Du        
  19875 ****        -4.2500 -16.7500  23.7500 Du        
  19876 ****        -4.2500 -16.7500  24.0000 Du        
  19877 ****        -4.2500 -16.7500  24.2500 Du        
  19878 ****        -4.2500 -16.5000  17.2500 Du        
  19879 ****        -4.2500 -16.5000  17.5000 Du        
  19880 ****        -4.2500 -16.5000  17.7500 Du        
  19881 ****        -4.2500 -16.5000  18.0000 Du        
  19882 ****        -4.2500 -16.5000  18.2500 Du        
  19883 ****        -4.2500 -16.5000  22.5000 Du        
  19884 ****        -4.2500 -16.5000  22.7500 Du        
  19885 ****        -4.2500 -16.5000  23.0000 Du        
  19886 ****        -4.2500 -16.5000  23.2500 Du        
  19887 ****        -4.2500 -16.5000  23.5000 Du        
  19888 ****        -4.2500 -16.5000  23.7500 Du        
  19889 ****        -4.2500 -16.5000  24.0000 Du        
  19890 ****        -4.2500 -16.5000  24.2500 Du        
  19891 ****        -4.2500 -16.2500  17.2500 Du        
  19892 ****        -4.2500 -16.2500  17.5000 Du        
  19893 ****        -4.2500 -16.2500  17.7500 Du        
  19894 ****        -4.2500 -16.2500  18.0000 Du        
  19895 ****        -4.2500 -16.2500  18.2500 Du        
  19896 ****        -4.2500 -16.2500  18.5000 Du        
  19897 ****        -4.2500 -16.2500  18.7500 Du        
  19898 ****        -4.2500 -16.2500  22.2500 Du        
  19899 ****        -4.2500 -16.2500  22.5000 Du        
  19900 ****        -4.2500 -16.2500  22.7500 Du        
  19901 ****        -4.2500 -16.2500  23.0000 Du        
  19902 ****        -4.2500 -16.2500  23.2500 Du        
  19903 ****        -4.2500 -16.2500  23.5000 Du        
  19904 ****        -4.2500 -16.2500  23.7500 Du        
  19905 ****        -4.2500 -16.2500  24.0000 Du        
  19906 ****        -4.2500 -16.2500  24.2500 Du        
  19907 ****        -4.2500 -16.0000  17.5000 Du        
  19908 ****        -4.2500 -16.0000  17.7500 Du        
  19909 ****        -4.2500 -16.0000  18.0000 Du        
  19910 ****        -4.2500 -16.0000  18.2500 Du        
  19911 ****        -4.2500 -16.0000  18.5000 Du        
  19912 ****        -4.2500 -16.0000  18.7500 Du        
  19913 ****        -4.2500 -16.0000  19.0000 Du        
  19914 ****        -4.2500 -16.0000  22.0000 Du        
  19915 ****        -4.2500 -16.0000  22.2500 Du        
  19916 ****        -4.2500 -16.0000  22.5000 Du        
  19917 ****        -4.2500 -16.0000  22.7500 Du        
  19918 ****        -4.2500 -16.0000  23.0000 Du        
  19919 ****        -4.2500 -16.0000  23.2500 Du        
  19920 ****        -4.2500 -16.0000  23.5000 Du        
  19921 ****        -4.2500 -16.0000  23.7500 Du        
  19922 ****        -4.2500 -16.0000  24.0000 Du        
  19923 ****        -4.2500 -15.7500  17.5000 Du        
  19924 ****        -4.2500 -15.7500  17.7500 Du        
  19925 ****        -4.2500 -15.7500  18.0000 Du        
  19926 ****        -4.2500 -15.7500  18.2500 Du        
  19927 ****        -4.2500 -15.7500  18.5000 Du        
  19928 ****        -4.2500 -15.7500  18.7500 Du        
  19929 ****        -4.2500 -15.7500  19.0000 Du        
  19930 ****        -4.2500 -15.7500  22.0000 Du        
  19931 ****        -4.2500 -15.7500  22.2500 Du        
  19932 ****        -4.2500 -15.7500  22.5000 Du        
  19933 ****        -4.2500 -15.7500  22.7500 Du        
  19934 ****        -4.2500 -15.7500  23.0000 Du        
  19935 ****        -4.2500 -15.7500  23.2500 Du        
  19936 ****        -4.2500 -15.7500  23.5000 Du        
  19937 ****        -4.2500 -15.7500  23.7500 Du        
  19938 ****        -4.2500 -15.7500  24.0000 Du        
  19939 ****        -4.2500 -15.5000  17.5000 Du        
  19940 ****        -4.2500 -15.5000  17.7500 Du        
  19941 ****        -4.2500 -15.5000  18.0000 Du        
  19942 ****        -4.2500 -15.5000  18.2500 Du        
  19943 ****        -4.2500 -15.5000  18.5000 Du        
  19944 ****        -4.2500 -15.5000  18.7500 Du        
  19945 ****        -4.2500 -15.5000  19.0000 Du        
  19946 ****        -4.2500 -15.5000  22.5000 Du        
  19947 ****        -4.2500 -15.5000  22.7500 Du        
  19948 ****        -4.2500 -15.5000  23.0000 Du        
  19949 ****        -4.2500 -15.5000  23.2500 Du        
  19950 ****        -4.2500 -15.5000  23.5000 Du        
  19951 ****        -4.2500 -15.5000  23.7500 Du        
  19952 ****        -4.2500 -15.2500  17.7500 Du        
  19953 ****        -4.2500 -15.2500  18.0000 Du        
  19954 ****        -4.2500 -15.2500  18.2500 Du        
  19955 ****        -4.2500 -15.2500  18.5000 Du        
  19956 ****        -4.2500 -15.2500  18.7500 Du        
  19957 ****        -4.2500 -15.2500  19.0000 Du        
  19958 ****        -4.2500 -15.2500  19.2500 Du        
  19959 ****        -4.2500 -15.2500  22.5000 Du        
  19960 ****        -4.2500 -15.2500  22.7500 Du        
  19961 ****        -4.2500 -15.2500  23.0000 Du        
  19962 ****        -4.2500 -15.2500  23.2500 Du        
  19963 ****        -4.2500 -15.2500  23.5000 Du        
  19964 ****        -4.2500 -15.0000  17.7500 Du        
  19965 ****        -4.2500 -15.0000  18.0000 Du        
  19966 ****        -4.2500 -15.0000  18.2500 Du        
  19967 ****        -4.2500 -15.0000  18.5000 Du        
  19968 ****        -4.2500 -15.0000  18.7500 Du        
  19969 ****        -4.2500 -15.0000  19.0000 Du        
  19970 ****        -4.2500 -15.0000  22.7500 Du        
  19971 ****        -4.2500 -15.0000  23.0000 Du        
  19972 ****        -4.2500 -15.0000  23.2500 Du        
  19973 ****        -4.2500  -8.2500  20.7500 Du        
  19974 ****        -4.2500  -8.2500  21.0000 Du        
  19975 ****        -4.2500  -8.2500  21.2500 Du        
  19976 ****        -4.2500  -8.0000  20.0000 Du        
  19977 ****        -4.2500  -8.0000  20.2500 Du        
  19978 ****        -4.2500  -8.0000  20.5000 Du        
  19979 ****        -4.2500  -8.0000  20.7500 Du        
  19980 ****        -4.2500  -8.0000  21.0000 Du        
  19981 ****        -4.2500  -8.0000  21.2500 Du        
  19982 ****        -4.2500  -7.7500  19.7500 Du        
  19983 ****        -4.2500  -7.7500  20.0000 Du        
  19984 ****        -4.2500  -7.7500  20.2500 Du        
  19985 ****        -4.2500  -7.7500  20.5000 Du        
  19986 ****        -4.2500  -7.7500  20.7500 Du        
  19987 ****        -4.2500  -7.7500  21.0000 Du        
  19988 ****        -4.2500  -7.7500  21.2500 Du        
  19989 ****        -4.2500  -7.5000  19.5000 Du        
  19990 ****        -4.2500  -7.5000  19.7500 Du        
  19991 ****        -4.2500  -7.5000  20.0000 Du        
  19992 ****        -4.2500  -7.5000  20.2500 Du        
  19993 ****        -4.2500  -7.5000  20.5000 Du        
  19994 ****        -4.2500  -7.5000  20.7500 Du        
  19995 ****        -4.2500  -7.5000  21.0000 Du        
  19996 ****        -4.2500  -7.2500  19.2500 Du        
  19997 ****        -4.2500  -7.2500  19.5000 Du        
  19998 ****        -4.2500  -7.2500  19.7500 Du        
  19999 ****        -4.2500  -7.2500  20.0000 Du        
  20000 ****        -4.2500  -7.2500  20.2500 Du        
  20001 ****        -4.2500  -7.2500  20.5000 Du        
  20002 ****        -4.2500  -7.2500  20.7500 Du        
  20003 ****        -4.2500  -7.2500  21.0000 Du        
  20004 ****        -4.2500  -7.0000  19.5000 Du        
  20005 ****        -4.2500  -7.0000  19.7500 Du        
  20006 ****        -4.2500  -7.0000  20.0000 Du        
  20007 ****        -4.2500  -7.0000  20.2500 Du        
  20008 ****        -4.2500  -7.0000  20.5000 Du        
  20009 ****        -4.2500  -7.0000  20.7500 Du        
  20010 ****        -4.2500  -6.7500  19.7500 Du        
  20011 ****        -4.2500  -6.7500  20.0000 Du        
  20012 ****        -4.2500  -6.7500  20.2500 Du        
  20013 ****        -4.2500  -3.0000  18.2500 Du        
  20014 ****        -4.2500  -3.0000  18.5000 Du        
  20015 ****        -4.2500  -3.0000  18.7500 Du        
  20016 ****        -4.2500  -2.7500  18.2500 Du        
  20017 ****        -4.2500  -2.7500  18.5000 Du        
  20018 ****        -4.2500  -2.7500  18.7500 Du        
  20019 ****        -4.2500  -2.7500  19.0000 Du        
  20020 ****        -4.2500  -2.5000  18.0000 Du        
  20021 ****        -4.2500  -2.5000  18.2500 Du        
  20022 ****        -4.2500  -2.5000  18.5000 Du        
  20023 ****        -4.2500  -2.5000  18.7500 Du        
  20024 ****        -4.2500  -2.5000  19.0000 Du        
  20025 ****        -4.2500  -2.5000  19.2500 Du        
  20026 ****        -4.2500  -2.2500  18.2500 Du        
  20027 ****        -4.2500  -2.2500  18.5000 Du        
  20028 ****        -4.2500  -2.2500  18.7500 Du        
  20029 ****        -4.2500  -2.2500  19.0000 Du        
  20030 ****        -4.2500  -2.2500  19.2500 Du        
  20031 ****        -4.2500   4.7500  10.0000 Du        
  20032 ****        -4.2500   4.7500  10.2500 Du        
  20033 ****        -4.2500   4.7500  10.5000 Du        
  20034 ****        -4.2500   4.7500  10.7500 Du        
  20035 ****        -4.2500   5.0000  10.0000 Du        
  20036 ****        -4.2500   5.0000  10.2500 Du        
  20037 ****        -4.2500   5.0000  10.5000 Du        
  20038 ****        -4.2500   5.0000  10.7500 Du        
  20039 ****        -4.2500   5.0000  11.0000 Du        
  20040 ****        -4.2500   5.0000  11.2500 Du        
  20041 ****        -4.2500   5.0000  11.5000 Du        
  20042 ****        -4.2500   5.0000  11.7500 Du        
  20043 ****        -4.2500   5.2500  10.0000 Du        
  20044 ****        -4.2500   5.2500  10.2500 Du        
  20045 ****        -4.2500   5.2500  10.5000 Du        
  20046 ****        -4.2500   5.2500  10.7500 Du        
  20047 ****        -4.2500   5.2500  11.0000 Du        
  20048 ****        -4.2500   5.2500  11.2500 Du        
  20049 ****        -4.2500   5.2500  11.5000 Du        
  20050 ****        -4.2500   5.2500  11.7500 Du        
  20051 ****        -4.2500   5.5000  10.2500 Du        
  20052 ****        -4.2500   5.5000  10.5000 Du        
  20053 ****        -4.2500   5.5000  10.7500 Du        
  20054 ****        -4.2500   5.5000  11.0000 Du        
  20055 ****        -4.2500   5.5000  11.2500 Du        
  20056 ****        -4.2500   5.5000  11.5000 Du        
  20057 ****        -4.2500   5.7500  10.2500 Du        
  20058 ****        -4.2500   5.7500  10.5000 Du        
  20059 ****        -4.2500   5.7500  10.7500 Du        
  20060 ****        -4.2500   5.7500  11.0000 Du        
  20061 ****        -4.2500   5.7500  11.2500 Du        
  20062 ****        -4.2500   6.0000  10.2500 Du        
  20063 ****        -4.2500   6.0000  10.5000 Du        
  20064 ****        -4.2500   6.0000  10.7500 Du        
  20065 ****        -4.2500   6.0000  11.0000 Du        
  20066 ****        -4.2500   6.0000  11.2500 Du        
  20067 ****        -4.2500   6.2500  10.5000 Du        
  20068 ****        -4.2500   6.2500  10.7500 Du        
  20069 ****        -4.2500   6.2500  11.0000 Du        
  20070 ****        -4.2500   6.5000  10.5000 Du        
  20071 ****        -4.2500   6.5000  10.7500 Du        
  20072 ****        -4.0000 -20.0000  16.2500 Du        
  20073 ****        -4.0000 -20.0000  16.5000 Du        
  20074 ****        -4.0000 -20.0000  16.7500 Du        
  20075 ****        -4.0000 -20.0000  17.0000 Du        
  20076 ****        -4.0000 -20.0000  17.2500 Du        
  20077 ****        -4.0000 -19.7500  16.5000 Du        
  20078 ****        -4.0000 -19.7500  16.7500 Du        
  20079 ****        -4.0000 -19.7500  17.0000 Du        
  20080 ****        -4.0000 -19.7500  17.2500 Du        
  20081 ****        -4.0000 -19.7500  17.5000 Du        
  20082 ****        -4.0000 -19.7500  17.7500 Du        
  20083 ****        -4.0000 -19.7500  18.0000 Du        
  20084 ****        -4.0000 -19.7500  24.7500 Du        
  20085 ****        -4.0000 -19.7500  25.0000 Du        
  20086 ****        -4.0000 -19.5000  16.5000 Du        
  20087 ****        -4.0000 -19.5000  16.7500 Du        
  20088 ****        -4.0000 -19.5000  17.0000 Du        
  20089 ****        -4.0000 -19.5000  17.2500 Du        
  20090 ****        -4.0000 -19.5000  17.5000 Du        
  20091 ****        -4.0000 -19.5000  17.7500 Du        
  20092 ****        -4.0000 -19.5000  24.2500 Du        
  20093 ****        -4.0000 -19.5000  24.5000 Du        
  20094 ****        -4.0000 -19.5000  24.7500 Du        
  20095 ****        -4.0000 -19.5000  25.0000 Du        
  20096 ****        -4.0000 -19.2500  16.5000 Du        
  20097 ****        -4.0000 -19.2500  16.7500 Du        
  20098 ****        -4.0000 -19.2500  17.0000 Du        
  20099 ****        -4.0000 -19.2500  17.2500 Du        
  20100 ****        -4.0000 -19.2500  17.5000 Du        
  20101 ****        -4.0000 -19.2500  17.7500 Du        
  20102 ****        -4.0000 -19.2500  23.7500 Du        
  20103 ****        -4.0000 -19.2500  24.0000 Du        
  20104 ****        -4.0000 -19.2500  24.2500 Du        
  20105 ****        -4.0000 -19.2500  24.5000 Du        
  20106 ****        -4.0000 -19.2500  24.7500 Du        
  20107 ****        -4.0000 -19.2500  25.0000 Du        
  20108 ****        -4.0000 -19.0000  16.7500 Du        
  20109 ****        -4.0000 -19.0000  17.0000 Du        
  20110 ****        -4.0000 -19.0000  17.2500 Du        
  20111 ****        -4.0000 -19.0000  17.5000 Du        
  20112 ****        -4.0000 -19.0000  23.7500 Du        
  20113 ****        -4.0000 -19.0000  24.0000 Du        
  20114 ****        -4.0000 -19.0000  24.2500 Du        
  20115 ****        -4.0000 -19.0000  24.5000 Du        
  20116 ****        -4.0000 -19.0000  24.7500 Du        
  20117 ****        -4.0000 -19.0000  25.0000 Du        
  20118 ****        -4.0000 -18.7500  16.7500 Du        
  20119 ****        -4.0000 -18.7500  17.0000 Du        
  20120 ****        -4.0000 -18.7500  17.2500 Du        
  20121 ****        -4.0000 -18.7500  17.5000 Du        
  20122 ****        -4.0000 -18.7500  23.5000 Du        
  20123 ****        -4.0000 -18.7500  23.7500 Du        
  20124 ****        -4.0000 -18.7500  24.0000 Du        
  20125 ****        -4.0000 -18.7500  24.2500 Du        
  20126 ****        -4.0000 -18.7500  24.5000 Du        
  20127 ****        -4.0000 -18.7500  24.7500 Du        
  20128 ****        -4.0000 -18.7500  25.0000 Du        
  20129 ****        -4.0000 -18.5000  16.7500 Du        
  20130 ****        -4.0000 -18.5000  17.0000 Du        
  20131 ****        -4.0000 -18.5000  17.2500 Du        
  20132 ****        -4.0000 -18.5000  23.5000 Du        
  20133 ****        -4.0000 -18.5000  23.7500 Du        
  20134 ****        -4.0000 -18.5000  24.0000 Du        
  20135 ****        -4.0000 -18.5000  24.2500 Du        
  20136 ****        -4.0000 -18.5000  24.5000 Du        
  20137 ****        -4.0000 -18.5000  24.7500 Du        
  20138 ****        -4.0000 -18.2500  16.7500 Du        
  20139 ****        -4.0000 -18.2500  17.0000 Du        
  20140 ****        -4.0000 -18.2500  17.2500 Du        
  20141 ****        -4.0000 -18.2500  23.5000 Du        
  20142 ****        -4.0000 -18.2500  23.7500 Du        
  20143 ****        -4.0000 -18.2500  24.0000 Du        
  20144 ****        -4.0000 -18.2500  24.2500 Du        
  20145 ****        -4.0000 -18.2500  24.5000 Du        
  20146 ****        -4.0000 -18.2500  24.7500 Du        
  20147 ****        -4.0000 -18.0000  16.7500 Du        
  20148 ****        -4.0000 -18.0000  17.0000 Du        
  20149 ****        -4.0000 -18.0000  17.2500 Du        
  20150 ****        -4.0000 -18.0000  23.5000 Du        
  20151 ****        -4.0000 -18.0000  23.7500 Du        
  20152 ****        -4.0000 -18.0000  24.0000 Du        
  20153 ****        -4.0000 -18.0000  24.2500 Du        
  20154 ****        -4.0000 -18.0000  24.5000 Du        
  20155 ****        -4.0000 -18.0000  24.7500 Du        
  20156 ****        -4.0000 -17.7500  16.7500 Du        
  20157 ****        -4.0000 -17.7500  17.0000 Du        
  20158 ****        -4.0000 -17.7500  17.2500 Du        
  20159 ****        -4.0000 -17.7500  23.5000 Du        
  20160 ****        -4.0000 -17.7500  23.7500 Du        
  20161 ****        -4.0000 -17.7500  24.0000 Du        
  20162 ****        -4.0000 -17.7500  24.2500 Du        
  20163 ****        -4.0000 -17.7500  24.5000 Du        
  20164 ****        -4.0000 -17.7500  24.7500 Du        
  20165 ****        -4.0000 -17.5000  16.7500 Du        
  20166 ****        -4.0000 -17.5000  17.0000 Du        
  20167 ****        -4.0000 -17.5000  17.2500 Du        
  20168 ****        -4.0000 -17.5000  17.5000 Du        
  20169 ****        -4.0000 -17.5000  23.5000 Du        
  20170 ****        -4.0000 -17.5000  23.7500 Du        
  20171 ****        -4.0000 -17.5000  24.0000 Du        
  20172 ****        -4.0000 -17.5000  24.2500 Du        
  20173 ****        -4.0000 -17.5000  24.5000 Du        
  20174 ****        -4.0000 -17.2500  16.7500 Du        
  20175 ****        -4.0000 -17.2500  17.0000 Du        
  20176 ****        -4.0000 -17.2500  17.2500 Du        
  20177 ****        -4.0000 -17.2500  17.5000 Du        
  20178 ****        -4.0000 -17.2500  17.7500 Du        
  20179 ****        -4.0000 -17.2500  23.2500 Du        
  20180 ****        -4.0000 -17.2500  23.5000 Du        
  20181 ****        -4.0000 -17.2500  23.7500 Du        
  20182 ****        -4.0000 -17.2500  24.0000 Du        
  20183 ****        -4.0000 -17.2500  24.2500 Du        
  20184 ****        -4.0000 -17.2500  24.5000 Du        
  20185 ****        -4.0000 -17.0000  16.7500 Du        
  20186 ****        -4.0000 -17.0000  17.0000 Du        
  20187 ****        -4.0000 -17.0000  17.2500 Du        
  20188 ****        -4.0000 -17.0000  17.5000 Du        
  20189 ****        -4.0000 -17.0000  17.7500 Du        
  20190 ****        -4.0000 -17.0000  18.0000 Du        
  20191 ****        -4.0000 -17.0000  23.0000 Du        
  20192 ****        -4.0000 -17.0000  23.2500 Du        
  20193 ****        -4.0000 -17.0000  23.5000 Du        
  20194 ****        -4.0000 -17.0000  23.7500 Du        
  20195 ****        -4.0000 -17.0000  24.0000 Du        
  20196 ****        -4.0000 -17.0000  24.2500 Du        
  20197 ****        -4.0000 -17.0000  24.5000 Du        
  20198 ****        -4.0000 -16.7500  17.0000 Du        
  20199 ****        -4.0000 -16.7500  17.2500 Du        
  20200 ****        -4.0000 -16.7500  17.5000 Du        
  20201 ****        -4.0000 -16.7500  17.7500 Du        
  20202 ****        -4.0000 -16.7500  18.0000 Du        
  20203 ****        -4.0000 -16.7500  22.7500 Du        
  20204 ****        -4.0000 -16.7500  23.0000 Du        
  20205 ****        -4.0000 -16.7500  23.2500 Du        
  20206 ****        -4.0000 -16.7500  23.5000 Du        
  20207 ****        -4.0000 -16.7500  23.7500 Du        
  20208 ****        -4.0000 -16.7500  24.0000 Du        
  20209 ****        -4.0000 -16.7500  24.2500 Du        
  20210 ****        -4.0000 -16.5000  17.0000 Du        
  20211 ****        -4.0000 -16.5000  17.2500 Du        
  20212 ****        -4.0000 -16.5000  17.5000 Du        
  20213 ****        -4.0000 -16.5000  17.7500 Du        
  20214 ****        -4.0000 -16.5000  18.0000 Du        
  20215 ****        -4.0000 -16.5000  18.2500 Du        
  20216 ****        -4.0000 -16.5000  22.7500 Du        
  20217 ****        -4.0000 -16.5000  23.0000 Du        
  20218 ****        -4.0000 -16.5000  23.2500 Du        
  20219 ****        -4.0000 -16.5000  23.5000 Du        
  20220 ****        -4.0000 -16.5000  23.7500 Du        
  20221 ****        -4.0000 -16.5000  24.0000 Du        
  20222 ****        -4.0000 -16.5000  24.2500 Du        
  20223 ****        -4.0000 -16.2500  17.2500 Du        
  20224 ****        -4.0000 -16.2500  17.5000 Du        
  20225 ****        -4.0000 -16.2500  17.7500 Du        
  20226 ****        -4.0000 -16.2500  18.0000 Du        
  20227 ****        -4.0000 -16.2500  18.2500 Du        
  20228 ****        -4.0000 -16.2500  18.5000 Du        
  20229 ****        -4.0000 -16.2500  22.5000 Du        
  20230 ****        -4.0000 -16.2500  22.7500 Du        
  20231 ****        -4.0000 -16.2500  23.0000 Du        
  20232 ****        -4.0000 -16.2500  23.2500 Du        
  20233 ****        -4.0000 -16.2500  23.5000 Du        
  20234 ****        -4.0000 -16.2500  23.7500 Du        
  20235 ****        -4.0000 -16.2500  24.0000 Du        
  20236 ****        -4.0000 -16.0000  17.2500 Du        
  20237 ****        -4.0000 -16.0000  17.5000 Du        
  20238 ****        -4.0000 -16.0000  17.7500 Du        
  20239 ****        -4.0000 -16.0000  18.0000 Du        
  20240 ****        -4.0000 -16.0000  18.2500 Du        
  20241 ****        -4.0000 -16.0000  18.5000 Du        
  20242 ****        -4.0000 -16.0000  18.7500 Du        
  20243 ****        -4.0000 -16.0000  22.2500 Du        
  20244 ****        -4.0000 -16.0000  22.5000 Du        
  20245 ****        -4.0000 -16.0000  22.7500 Du        
  20246 ****        -4.0000 -16.0000  23.0000 Du        
  20247 ****        -4.0000 -16.0000  23.2500 Du        
  20248 ****        -4.0000 -16.0000  23.5000 Du        
  20249 ****        -4.0000 -16.0000  23.7500 Du        
  20250 ****        -4.0000 -16.0000  24.0000 Du        
  20251 ****        -4.0000 -15.7500  17.5000 Du        
  20252 ****        -4.0000 -15.7500  17.7500 Du        
  20253 ****        -4.0000 -15.7500  18.0000 Du        
  20254 ****        -4.0000 -15.7500  18.2500 Du        
  20255 ****        -4.0000 -15.7500  18.5000 Du        
  20256 ****        -4.0000 -15.7500  18.7500 Du        
  20257 ****        -4.0000 -15.7500  19.0000 Du        
  20258 ****        -4.0000 -15.7500  22.2500 Du        
  20259 ****        -4.0000 -15.7500  22.5000 Du        
  20260 ****        -4.0000 -15.7500  22.7500 Du        
  20261 ****        -4.0000 -15.7500  23.0000 Du        
  20262 ****        -4.0000 -15.7500  23.2500 Du        
  20263 ****        -4.0000 -15.7500  23.5000 Du        
  20264 ****        -4.0000 -15.7500  23.7500 Du        
  20265 ****        -4.0000 -15.5000  17.5000 Du        
  20266 ****        -4.0000 -15.5000  17.7500 Du        
  20267 ****        -4.0000 -15.5000  18.0000 Du        
  20268 ****        -4.0000 -15.5000  18.2500 Du        
  20269 ****        -4.0000 -15.5000  18.5000 Du        
  20270 ****        -4.0000 -15.5000  18.7500 Du        
  20271 ****        -4.0000 -15.5000  19.0000 Du        
  20272 ****        -4.0000 -15.5000  19.2500 Du        
  20273 ****        -4.0000 -15.5000  22.5000 Du        
  20274 ****        -4.0000 -15.5000  22.7500 Du        
  20275 ****        -4.0000 -15.5000  23.0000 Du        
  20276 ****        -4.0000 -15.5000  23.2500 Du        
  20277 ****        -4.0000 -15.5000  23.5000 Du        
  20278 ****        -4.0000 -15.2500  17.5000 Du        
  20279 ****        -4.0000 -15.2500  17.7500 Du        
  20280 ****        -4.0000 -15.2500  18.0000 Du        
  20281 ****        -4.0000 -15.2500  18.2500 Du        
  20282 ****        -4.0000 -15.2500  18.5000 Du        
  20283 ****        -4.0000 -15.2500  18.7500 Du        
  20284 ****        -4.0000 -15.2500  19.0000 Du        
  20285 ****        -4.0000 -15.2500  19.2500 Du        
  20286 ****        -4.0000 -15.2500  19.5000 Du        
  20287 ****        -4.0000 -15.2500  19.7500 Du        
  20288 ****        -4.0000 -15.2500  20.0000 Du        
  20289 ****        -4.0000 -15.2500  22.7500 Du        
  20290 ****        -4.0000 -15.2500  23.0000 Du        
  20291 ****        -4.0000 -15.2500  23.2500 Du        
  20292 ****        -4.0000 -15.0000  17.7500 Du        
  20293 ****        -4.0000 -15.0000  18.0000 Du        
  20294 ****        -4.0000 -15.0000  18.2500 Du        
  20295 ****        -4.0000 -15.0000  18.5000 Du        
  20296 ****        -4.0000 -15.0000  18.7500 Du        
  20297 ****        -4.0000 -15.0000  19.0000 Du        
  20298 ****        -4.0000 -15.0000  19.2500 Du        
  20299 ****        -4.0000 -15.0000  19.5000 Du        
  20300 ****        -4.0000 -15.0000  19.7500 Du        
  20301 ****        -4.0000 -15.0000  20.0000 Du        
  20302 ****        -4.0000 -14.7500  17.7500 Du        
  20303 ****        -4.0000 -14.7500  18.0000 Du        
  20304 ****        -4.0000 -14.7500  18.2500 Du        
  20305 ****        -4.0000 -14.7500  18.5000 Du        
  20306 ****        -4.0000 -14.7500  18.7500 Du        
  20307 ****        -4.0000 -14.7500  19.0000 Du        
  20308 ****        -4.0000 -14.7500  19.2500 Du        
  20309 ****        -4.0000  -8.2500  20.2500 Du        
  20310 ****        -4.0000  -8.2500  20.5000 Du        
  20311 ****        -4.0000  -8.2500  20.7500 Du        
  20312 ****        -4.0000  -8.0000  20.0000 Du        
  20313 ****        -4.0000  -8.0000  20.2500 Du        
  20314 ****        -4.0000  -8.0000  20.5000 Du        
  20315 ****        -4.0000  -8.0000  20.7500 Du        
  20316 ****        -4.0000  -8.0000  21.0000 Du        
  20317 ****        -4.0000  -7.7500  19.5000 Du        
  20318 ****        -4.0000  -7.7500  19.7500 Du        
  20319 ****        -4.0000  -7.7500  20.0000 Du        
  20320 ****        -4.0000  -7.7500  20.2500 Du        
  20321 ****        -4.0000  -7.7500  20.5000 Du        
  20322 ****        -4.0000  -7.7500  20.7500 Du        
  20323 ****        -4.0000  -7.7500  21.0000 Du        
  20324 ****        -4.0000  -7.7500  21.2500 Du        
  20325 ****        -4.0000  -7.5000  19.2500 Du        
  20326 ****        -4.0000  -7.5000  19.5000 Du        
  20327 ****        -4.0000  -7.5000  19.7500 Du        
  20328 ****        -4.0000  -7.5000  20.0000 Du        
  20329 ****        -4.0000  -7.5000  20.2500 Du        
  20330 ****        -4.0000  -7.5000  20.5000 Du        
  20331 ****        -4.0000  -7.5000  20.7500 Du        
  20332 ****        -4.0000  -7.5000  21.0000 Du        
  20333 ****        -4.0000  -7.2500  18.7500 Du        
  20334 ****        -4.0000  -7.2500  19.0000 Du        
  20335 ****        -4.0000  -7.2500  19.2500 Du        
  20336 ****        -4.0000  -7.2500  19.5000 Du        
  20337 ****        -4.0000  -7.2500  19.7500 Du        
  20338 ****        -4.0000  -7.2500  20.0000 Du        
  20339 ****        -4.0000  -7.2500  20.2500 Du        
  20340 ****        -4.0000  -7.2500  20.5000 Du        
  20341 ****        -4.0000  -7.2500  20.7500 Du        
  20342 ****        -4.0000  -7.2500  21.0000 Du        
  20343 ****        -4.0000  -7.0000  18.7500 Du        
  20344 ****        -4.0000  -7.0000  19.0000 Du        
  20345 ****        -4.0000  -7.0000  19.2500 Du        
  20346 ****        -4.0000  -7.0000  19.5000 Du        
  20347 ****        -4.0000  -7.0000  19.7500 Du        
  20348 ****        -4.0000  -7.0000  20.0000 Du        
  20349 ****        -4.0000  -7.0000  20.2500 Du        
  20350 ****        -4.0000  -7.0000  20.5000 Du        
  20351 ****        -4.0000  -7.0000  20.7500 Du        
  20352 ****        -4.0000  -7.0000  21.0000 Du        
  20353 ****        -4.0000  -6.7500  19.0000 Du        
  20354 ****        -4.0000  -6.7500  19.2500 Du        
  20355 ****        -4.0000  -6.7500  19.5000 Du        
  20356 ****        -4.0000  -6.7500  19.7500 Du        
  20357 ****        -4.0000  -6.7500  20.0000 Du        
  20358 ****        -4.0000  -6.7500  20.2500 Du        
  20359 ****        -4.0000  -6.5000  19.7500 Du        
  20360 ****        -4.0000  -6.5000  20.0000 Du        
  20361 ****        -4.0000  -3.2500  18.5000 Du        
  20362 ****        -4.0000  -3.2500  18.7500 Du        
  20363 ****        -4.0000  -3.0000  18.2500 Du        
  20364 ****        -4.0000  -3.0000  18.5000 Du        
  20365 ****        -4.0000  -3.0000  18.7500 Du        
  20366 ****        -4.0000  -3.0000  19.0000 Du        
  20367 ****        -4.0000  -3.0000  19.2500 Du        
  20368 ****        -4.0000  -2.7500  18.0000 Du        
  20369 ****        -4.0000  -2.7500  18.2500 Du        
  20370 ****        -4.0000  -2.7500  18.5000 Du        
  20371 ****        -4.0000  -2.7500  18.7500 Du        
  20372 ****        -4.0000  -2.7500  19.0000 Du        
  20373 ****        -4.0000  -2.7500  19.2500 Du        
  20374 ****        -4.0000  -2.5000  18.0000 Du        
  20375 ****        -4.0000  -2.5000  18.2500 Du        
  20376 ****        -4.0000  -2.5000  18.5000 Du        
  20377 ****        -4.0000  -2.5000  18.7500 Du        
  20378 ****        -4.0000  -2.5000  19.0000 Du        
  20379 ****        -4.0000  -2.5000  19.2500 Du        
  20380 ****        -4.0000  -2.2500  18.7500 Du        
  20381 ****        -4.0000  -2.2500  19.0000 Du        
  20382 ****        -4.0000  -2.2500  19.2500 Du        
  20383 ****        -4.0000   4.7500  10.2500 Du        
  20384 ****        -4.0000   4.7500  10.5000 Du        
  20385 ****        -4.0000   4.7500  10.7500 Du        
  20386 ****        -4.0000   5.0000  10.2500 Du        
  20387 ****        -4.0000   5.0000  10.5000 Du        
  20388 ****        -4.0000   5.0000  10.7500 Du        
  20389 ****        -4.0000   5.0000  11.0000 Du        
  20390 ****        -4.0000   5.0000  11.2500 Du        
  20391 ****        -4.0000   5.0000  11.5000 Du        
  20392 ****        -4.0000   5.0000  11.7500 Du        
  20393 ****        -4.0000   5.2500  10.2500 Du        
  20394 ****        -4.0000   5.2500  10.5000 Du        
  20395 ****        -4.0000   5.2500  10.7500 Du        
  20396 ****        -4.0000   5.2500  11.0000 Du        
  20397 ****        -4.0000   5.2500  11.2500 Du        
  20398 ****        -4.0000   5.2500  11.5000 Du        
  20399 ****        -4.0000   5.2500  11.7500 Du        
  20400 ****        -4.0000   5.5000  10.5000 Du        
  20401 ****        -4.0000   5.5000  10.7500 Du        
  20402 ****        -4.0000   5.5000  11.0000 Du        
  20403 ****        -4.0000   5.5000  11.2500 Du        
  20404 ****        -4.0000   5.5000  11.5000 Du        
  20405 ****        -4.0000   5.7500  10.5000 Du        
  20406 ****        -4.0000   5.7500  10.7500 Du        
  20407 ****        -4.0000   5.7500  11.0000 Du        
  20408 ****        -4.0000   5.7500  11.2500 Du        
  20409 ****        -4.0000   6.0000  10.5000 Du        
  20410 ****        -4.0000   6.0000  10.7500 Du        
  20411 ****        -4.0000   6.0000  11.0000 Du        
  20412 ****        -4.0000   6.2500  10.5000 Du        
  20413 ****        -4.0000   6.2500  10.7500 Du        
  20414 ****        -3.7500 -20.2500  25.0000 Du        
  20415 ****        -3.7500 -20.2500  25.2500 Du        
  20416 ****        -3.7500 -20.0000  15.7500 Du        
  20417 ****        -3.7500 -20.0000  16.0000 Du        
  20418 ****        -3.7500 -20.0000  16.2500 Du        
  20419 ****        -3.7500 -20.0000  16.5000 Du        
  20420 ****        -3.7500 -20.0000  16.7500 Du        
  20421 ****        -3.7500 -20.0000  24.7500 Du        
  20422 ****        -3.7500 -20.0000  25.0000 Du        
  20423 ****        -3.7500 -20.0000  25.2500 Du        
  20424 ****        -3.7500 -19.7500  16.0000 Du        
  20425 ****        -3.7500 -19.7500  16.2500 Du        
  20426 ****        -3.7500 -19.7500  16.5000 Du        
  20427 ****        -3.7500 -19.7500  16.7500 Du        
  20428 ****        -3.7500 -19.7500  17.0000 Du        
  20429 ****        -3.7500 -19.7500  17.2500 Du        
  20430 ****        -3.7500 -19.7500  17.5000 Du        
  20431 ****        -3.7500 -19.7500  24.2500 Du        
  20432 ****        -3.7500 -19.7500  24.5000 Du        
  20433 ****        -3.7500 -19.7500  24.7500 Du        
  20434 ****        -3.7500 -19.7500  25.0000 Du        
  20435 ****        -3.7500 -19.7500  25.2500 Du        
  20436 ****        -3.7500 -19.5000  16.0000 Du        
  20437 ****        -3.7500 -19.5000  16.2500 Du        
  20438 ****        -3.7500 -19.5000  16.5000 Du        
  20439 ****        -3.7500 -19.5000  16.7500 Du        
  20440 ****        -3.7500 -19.5000  17.0000 Du        
  20441 ****        -3.7500 -19.5000  17.2500 Du        
  20442 ****        -3.7500 -19.5000  24.0000 Du        
  20443 ****        -3.7500 -19.5000  24.2500 Du        
  20444 ****        -3.7500 -19.5000  24.5000 Du        
  20445 ****        -3.7500 -19.5000  24.7500 Du        
  20446 ****        -3.7500 -19.5000  25.0000 Du        
  20447 ****        -3.7500 -19.5000  25.2500 Du        
  20448 ****        -3.7500 -19.2500  16.2500 Du        
  20449 ****        -3.7500 -19.2500  16.5000 Du        
  20450 ****        -3.7500 -19.2500  16.7500 Du        
  20451 ****        -3.7500 -19.2500  17.0000 Du        
  20452 ****        -3.7500 -19.2500  17.2500 Du        
  20453 ****        -3.7500 -19.2500  23.7500 Du        
  20454 ****        -3.7500 -19.2500  24.0000 Du        
  20455 ****        -3.7500 -19.2500  24.2500 Du        
  20456 ****        -3.7500 -19.2500  24.5000 Du        
  20457 ****        -3.7500 -19.2500  24.7500 Du        
  20458 ****        -3.7500 -19.2500  25.0000 Du        
  20459 ****        -3.7500 -19.2500  25.2500 Du        
  20460 ****        -3.7500 -19.0000  16.2500 Du        
  20461 ****        -3.7500 -19.0000  16.5000 Du        
  20462 ****        -3.7500 -19.0000  16.7500 Du        
  20463 ****        -3.7500 -19.0000  17.0000 Du        
  20464 ****        -3.7500 -19.0000  23.7500 Du        
  20465 ****        -3.7500 -19.0000  24.0000 Du        
  20466 ****        -3.7500 -19.0000  24.2500 Du        
  20467 ****        -3.7500 -19.0000  24.5000 Du        
  20468 ****        -3.7500 -19.0000  24.7500 Du        
  20469 ****        -3.7500 -19.0000  25.0000 Du        
  20470 ****        -3.7500 -18.7500  16.2500 Du        
  20471 ****        -3.7500 -18.7500  16.5000 Du        
  20472 ****        -3.7500 -18.7500  16.7500 Du        
  20473 ****        -3.7500 -18.7500  17.0000 Du        
  20474 ****        -3.7500 -18.7500  23.7500 Du        
  20475 ****        -3.7500 -18.7500  24.0000 Du        
  20476 ****        -3.7500 -18.7500  24.2500 Du        
  20477 ****        -3.7500 -18.7500  24.5000 Du        
  20478 ****        -3.7500 -18.7500  24.7500 Du        
  20479 ****        -3.7500 -18.7500  25.0000 Du        
  20480 ****        -3.7500 -18.5000  16.5000 Du        
  20481 ****        -3.7500 -18.5000  16.7500 Du        
  20482 ****        -3.7500 -18.5000  23.7500 Du        
  20483 ****        -3.7500 -18.5000  24.0000 Du        
  20484 ****        -3.7500 -18.5000  24.2500 Du        
  20485 ****        -3.7500 -18.5000  24.5000 Du        
  20486 ****        -3.7500 -18.5000  24.7500 Du        
  20487 ****        -3.7500 -18.5000  25.0000 Du        
  20488 ****        -3.7500 -18.2500  16.7500 Du        
  20489 ****        -3.7500 -18.2500  23.7500 Du        
  20490 ****        -3.7500 -18.2500  24.0000 Du        
  20491 ****        -3.7500 -18.2500  24.2500 Du        
  20492 ****        -3.7500 -18.2500  24.5000 Du        
  20493 ****        -3.7500 -18.2500  24.7500 Du        
  20494 ****        -3.7500 -18.2500  25.0000 Du        
  20495 ****        -3.7500 -18.0000  16.7500 Du        
  20496 ****        -3.7500 -18.0000  23.7500 Du        
  20497 ****        -3.7500 -18.0000  24.0000 Du        
  20498 ****        -3.7500 -18.0000  24.2500 Du        
  20499 ****        -3.7500 -18.0000  24.5000 Du        
  20500 ****        -3.7500 -18.0000  24.7500 Du        
  20501 ****        -3.7500 -17.7500  16.7500 Du        
  20502 ****        -3.7500 -17.7500  17.0000 Du        
  20503 ****        -3.7500 -17.7500  23.7500 Du        
  20504 ****        -3.7500 -17.7500  24.0000 Du        
  20505 ****        -3.7500 -17.7500  24.2500 Du        
  20506 ****        -3.7500 -17.7500  24.5000 Du        
  20507 ****        -3.7500 -17.7500  24.7500 Du        
  20508 ****        -3.7500 -17.5000  16.7500 Du        
  20509 ****        -3.7500 -17.5000  17.0000 Du        
  20510 ****        -3.7500 -17.5000  23.7500 Du        
  20511 ****        -3.7500 -17.5000  24.0000 Du        
  20512 ****        -3.7500 -17.5000  24.2500 Du        
  20513 ****        -3.7500 -17.5000  24.5000 Du        
  20514 ****        -3.7500 -17.2500  16.5000 Du        
  20515 ****        -3.7500 -17.2500  16.7500 Du        
  20516 ****        -3.7500 -17.2500  17.0000 Du        
  20517 ****        -3.7500 -17.2500  17.2500 Du        
  20518 ****        -3.7500 -17.2500  17.5000 Du        
  20519 ****        -3.7500 -17.2500  23.5000 Du        
  20520 ****        -3.7500 -17.2500  23.7500 Du        
  20521 ****        -3.7500 -17.2500  24.0000 Du        
  20522 ****        -3.7500 -17.2500  24.2500 Du        
  20523 ****        -3.7500 -17.2500  24.5000 Du        
  20524 ****        -3.7500 -17.0000  16.7500 Du        
  20525 ****        -3.7500 -17.0000  17.0000 Du        
  20526 ****        -3.7500 -17.0000  17.2500 Du        
  20527 ****        -3.7500 -17.0000  17.5000 Du        
  20528 ****        -3.7500 -17.0000  17.7500 Du        
  20529 ****        -3.7500 -17.0000  23.2500 Du        
  20530 ****        -3.7500 -17.0000  23.5000 Du        
  20531 ****        -3.7500 -17.0000  23.7500 Du        
  20532 ****        -3.7500 -17.0000  24.0000 Du        
  20533 ****        -3.7500 -17.0000  24.2500 Du        
  20534 ****        -3.7500 -16.7500  16.7500 Du        
  20535 ****        -3.7500 -16.7500  17.0000 Du        
  20536 ****        -3.7500 -16.7500  17.2500 Du        
  20537 ****        -3.7500 -16.7500  17.5000 Du        
  20538 ****        -3.7500 -16.7500  17.7500 Du        
  20539 ****        -3.7500 -16.7500  18.0000 Du        
  20540 ****        -3.7500 -16.7500  23.2500 Du        
  20541 ****        -3.7500 -16.7500  23.5000 Du        
  20542 ****        -3.7500 -16.7500  23.7500 Du        
  20543 ****        -3.7500 -16.7500  24.0000 Du        
  20544 ****        -3.7500 -16.7500  24.2500 Du        
  20545 ****        -3.7500 -16.5000  17.0000 Du        
  20546 ****        -3.7500 -16.5000  17.2500 Du        
  20547 ****        -3.7500 -16.5000  17.5000 Du        
  20548 ****        -3.7500 -16.5000  17.7500 Du        
  20549 ****        -3.7500 -16.5000  18.0000 Du        
  20550 ****        -3.7500 -16.5000  23.0000 Du        
  20551 ****        -3.7500 -16.5000  23.2500 Du        
  20552 ****        -3.7500 -16.5000  23.5000 Du        
  20553 ****        -3.7500 -16.5000  23.7500 Du        
  20554 ****        -3.7500 -16.5000  24.0000 Du        
  20555 ****        -3.7500 -16.2500  17.0000 Du        
  20556 ****        -3.7500 -16.2500  17.2500 Du        
  20557 ****        -3.7500 -16.2500  17.5000 Du        
  20558 ****        -3.7500 -16.2500  17.7500 Du        
  20559 ****        -3.7500 -16.2500  18.0000 Du        
  20560 ****        -3.7500 -16.2500  18.2500 Du        
  20561 ****        -3.7500 -16.2500  18.5000 Du        
  20562 ****        -3.7500 -16.2500  22.7500 Du        
  20563 ****        -3.7500 -16.2500  23.0000 Du        
  20564 ****        -3.7500 -16.2500  23.2500 Du        
  20565 ****        -3.7500 -16.2500  23.5000 Du        
  20566 ****        -3.7500 -16.2500  23.7500 Du        
  20567 ****        -3.7500 -16.0000  17.2500 Du        
  20568 ****        -3.7500 -16.0000  17.5000 Du        
  20569 ****        -3.7500 -16.0000  17.7500 Du        
  20570 ****        -3.7500 -16.0000  18.0000 Du        
  20571 ****        -3.7500 -16.0000  18.2500 Du        
  20572 ****        -3.7500 -16.0000  18.5000 Du        
  20573 ****        -3.7500 -16.0000  18.7500 Du        
  20574 ****        -3.7500 -16.0000  22.5000 Du        
  20575 ****        -3.7500 -16.0000  22.7500 Du        
  20576 ****        -3.7500 -16.0000  23.0000 Du        
  20577 ****        -3.7500 -16.0000  23.2500 Du        
  20578 ****        -3.7500 -16.0000  23.5000 Du        
  20579 ****        -3.7500 -16.0000  23.7500 Du        
  20580 ****        -3.7500 -15.7500  17.2500 Du        
  20581 ****        -3.7500 -15.7500  17.5000 Du        
  20582 ****        -3.7500 -15.7500  17.7500 Du        
  20583 ****        -3.7500 -15.7500  18.0000 Du        
  20584 ****        -3.7500 -15.7500  18.2500 Du        
  20585 ****        -3.7500 -15.7500  18.5000 Du        
  20586 ****        -3.7500 -15.7500  18.7500 Du        
  20587 ****        -3.7500 -15.7500  19.0000 Du        
  20588 ****        -3.7500 -15.7500  22.7500 Du        
  20589 ****        -3.7500 -15.7500  23.0000 Du        
  20590 ****        -3.7500 -15.7500  23.2500 Du        
  20591 ****        -3.7500 -15.7500  23.5000 Du        
  20592 ****        -3.7500 -15.5000  17.5000 Du        
  20593 ****        -3.7500 -15.5000  17.7500 Du        
  20594 ****        -3.7500 -15.5000  18.0000 Du        
  20595 ****        -3.7500 -15.5000  18.2500 Du        
  20596 ****        -3.7500 -15.5000  18.5000 Du        
  20597 ****        -3.7500 -15.5000  18.7500 Du        
  20598 ****        -3.7500 -15.5000  19.0000 Du        
  20599 ****        -3.7500 -15.5000  19.2500 Du        
  20600 ****        -3.7500 -15.2500  17.5000 Du        
  20601 ****        -3.7500 -15.2500  17.7500 Du        
  20602 ****        -3.7500 -15.2500  18.0000 Du        
  20603 ****        -3.7500 -15.2500  18.2500 Du        
  20604 ****        -3.7500 -15.2500  18.5000 Du        
  20605 ****        -3.7500 -15.2500  18.7500 Du        
  20606 ****        -3.7500 -15.2500  19.0000 Du        
  20607 ****        -3.7500 -15.2500  19.2500 Du        
  20608 ****        -3.7500 -15.2500  19.5000 Du        
  20609 ****        -3.7500 -15.2500  19.7500 Du        
  20610 ****        -3.7500 -15.0000  17.5000 Du        
  20611 ****        -3.7500 -15.0000  17.7500 Du        
  20612 ****        -3.7500 -15.0000  18.0000 Du        
  20613 ****        -3.7500 -15.0000  18.2500 Du        
  20614 ****        -3.7500 -15.0000  18.5000 Du        
  20615 ****        -3.7500 -15.0000  18.7500 Du        
  20616 ****        -3.7500 -15.0000  19.0000 Du        
  20617 ****        -3.7500 -15.0000  19.2500 Du        
  20618 ****        -3.7500 -15.0000  19.5000 Du        
  20619 ****        -3.7500 -15.0000  19.7500 Du        
  20620 ****        -3.7500 -14.7500  17.5000 Du        
  20621 ****        -3.7500 -14.7500  17.7500 Du        
  20622 ****        -3.7500 -14.7500  18.0000 Du        
  20623 ****        -3.7500 -14.7500  18.2500 Du        
  20624 ****        -3.7500 -14.7500  18.5000 Du        
  20625 ****        -3.7500 -14.7500  18.7500 Du        
  20626 ****        -3.7500 -14.7500  19.0000 Du        
  20627 ****        -3.7500 -14.7500  19.2500 Du        
  20628 ****        -3.7500 -14.7500  19.5000 Du        
  20629 ****        -3.7500 -14.7500  19.7500 Du        
  20630 ****        -3.7500 -14.5000  19.5000 Du        
  20631 ****        -3.7500 -14.5000  19.7500 Du        
  20632 ****        -3.7500  -8.2500  20.2500 Du        
  20633 ****        -3.7500  -8.0000  19.7500 Du        
  20634 ****        -3.7500  -8.0000  20.0000 Du        
  20635 ****        -3.7500  -8.0000  20.2500 Du        
  20636 ****        -3.7500  -8.0000  20.5000 Du        
  20637 ****        -3.7500  -7.7500  19.2500 Du        
  20638 ****        -3.7500  -7.7500  19.5000 Du        
  20639 ****        -3.7500  -7.7500  19.7500 Du        
  20640 ****        -3.7500  -7.7500  20.0000 Du        
  20641 ****        -3.7500  -7.7500  20.2500 Du        
  20642 ****        -3.7500  -7.7500  20.5000 Du        
  20643 ****        -3.7500  -7.7500  20.7500 Du        
  20644 ****        -3.7500  -7.5000  18.7500 Du        
  20645 ****        -3.7500  -7.5000  19.0000 Du        
  20646 ****        -3.7500  -7.5000  19.2500 Du        
  20647 ****        -3.7500  -7.5000  19.5000 Du        
  20648 ****        -3.7500  -7.5000  19.7500 Du        
  20649 ****        -3.7500  -7.5000  20.0000 Du        
  20650 ****        -3.7500  -7.5000  20.2500 Du        
  20651 ****        -3.7500  -7.5000  20.5000 Du        
  20652 ****        -3.7500  -7.2500  18.5000 Du        
  20653 ****        -3.7500  -7.2500  18.7500 Du        
  20654 ****        -3.7500  -7.2500  19.0000 Du        
  20655 ****        -3.7500  -7.2500  19.2500 Du        
  20656 ****        -3.7500  -7.2500  19.5000 Du        
  20657 ****        -3.7500  -7.2500  19.7500 Du        
  20658 ****        -3.7500  -7.2500  20.0000 Du        
  20659 ****        -3.7500  -7.2500  20.2500 Du        
  20660 ****        -3.7500  -7.2500  20.5000 Du        
  20661 ****        -3.7500  -7.2500  20.7500 Du        
  20662 ****        -3.7500  -7.0000  18.7500 Du        
  20663 ****        -3.7500  -7.0000  19.0000 Du        
  20664 ****        -3.7500  -7.0000  19.2500 Du        
  20665 ****        -3.7500  -7.0000  19.5000 Du        
  20666 ****        -3.7500  -7.0000  19.7500 Du        
  20667 ****        -3.7500  -7.0000  20.0000 Du        
  20668 ****        -3.7500  -7.0000  20.2500 Du        
  20669 ****        -3.7500  -6.7500  18.7500 Du        
  20670 ****        -3.7500  -6.7500  19.0000 Du        
  20671 ****        -3.7500  -6.7500  19.2500 Du        
  20672 ****        -3.7500  -6.7500  19.5000 Du        
  20673 ****        -3.7500  -6.7500  19.7500 Du        
  20674 ****        -3.7500  -6.7500  20.0000 Du        
  20675 ****        -3.7500  -6.7500  20.2500 Du        
  20676 ****        -3.7500  -6.5000  19.0000 Du        
  20677 ****        -3.7500  -6.5000  19.2500 Du        
  20678 ****        -3.7500  -6.5000  19.5000 Du        
  20679 ****        -3.7500  -6.2500  19.2500 Du        
  20680 ****        -3.7500  -3.5000  18.7500 Du        
  20681 ****        -3.7500  -3.5000  19.0000 Du        
  20682 ****        -3.7500  -3.2500  18.2500 Du        
  20683 ****        -3.7500  -3.2500  18.5000 Du        
  20684 ****        -3.7500  -3.2500  18.7500 Du        
  20685 ****        -3.7500  -3.2500  19.0000 Du        
  20686 ****        -3.7500  -3.2500  19.2500 Du        
  20687 ****        -3.7500  -3.0000  18.2500 Du        
  20688 ****        -3.7500  -3.0000  18.5000 Du        
  20689 ****        -3.7500  -3.0000  18.7500 Du        
  20690 ****        -3.7500  -3.0000  19.0000 Du        
  20691 ****        -3.7500  -3.0000  19.2500 Du        
  20692 ****        -3.7500  -3.0000  19.5000 Du        
  20693 ****        -3.7500  -2.7500  18.0000 Du        
  20694 ****        -3.7500  -2.7500  18.2500 Du        
  20695 ****        -3.7500  -2.7500  18.5000 Du        
  20696 ****        -3.7500  -2.7500  18.7500 Du        
  20697 ****        -3.7500  -2.7500  19.0000 Du        
  20698 ****        -3.7500  -2.7500  19.2500 Du        
  20699 ****        -3.7500  -2.7500  19.5000 Du        
  20700 ****        -3.7500  -2.5000  18.0000 Du        
  20701 ****        -3.7500  -2.5000  18.2500 Du        
  20702 ****        -3.7500  -2.5000  18.5000 Du        
  20703 ****        -3.7500  -2.5000  18.7500 Du        
  20704 ****        -3.7500  -2.5000  19.0000 Du        
  20705 ****        -3.7500  -2.5000  19.2500 Du        
  20706 ****        -3.7500   5.0000  10.5000 Du        
  20707 ****        -3.7500   5.0000  10.7500 Du        
  20708 ****        -3.7500   5.0000  11.0000 Du        
  20709 ****        -3.7500   5.0000  11.2500 Du        
  20710 ****        -3.7500   5.0000  11.5000 Du        
  20711 ****        -3.7500   5.0000  11.7500 Du        
  20712 ****        -3.7500   5.2500  10.5000 Du        
  20713 ****        -3.7500   5.2500  10.7500 Du        
  20714 ****        -3.7500   5.2500  11.0000 Du        
  20715 ****        -3.7500   5.2500  11.2500 Du        
  20716 ****        -3.7500   5.2500  11.5000 Du        
  20717 ****        -3.7500   5.5000  10.5000 Du        
  20718 ****        -3.7500   5.5000  10.7500 Du        
  20719 ****        -3.7500   5.5000  11.0000 Du        
  20720 ****        -3.7500   5.5000  11.2500 Du        
  20721 ****        -3.7500   5.5000  11.5000 Du        
  20722 ****        -3.7500   5.7500  10.5000 Du        
  20723 ****        -3.7500   5.7500  10.7500 Du        
  20724 ****        -3.7500   5.7500  11.0000 Du        
  20725 ****        -3.7500   5.7500  11.2500 Du        
  20726 ****        -3.7500   6.0000  10.5000 Du        
  20727 ****        -3.7500   6.0000  10.7500 Du        
  20728 ****        -3.7500   6.0000  11.0000 Du        
  20729 ****        -3.7500   6.2500  10.7500 Du        
  20730 ****        -3.5000 -20.5000  25.0000 Du        
  20731 ****        -3.5000 -20.5000  25.2500 Du        
  20732 ****        -3.5000 -20.2500  14.2500 Du        
  20733 ****        -3.5000 -20.2500  14.5000 Du        
  20734 ****        -3.5000 -20.2500  14.7500 Du        
  20735 ****        -3.5000 -20.2500  15.0000 Du        
  20736 ****        -3.5000 -20.2500  15.2500 Du        
  20737 ****        -3.5000 -20.2500  15.5000 Du        
  20738 ****        -3.5000 -20.2500  15.7500 Du        
  20739 ****        -3.5000 -20.2500  24.7500 Du        
  20740 ****        -3.5000 -20.2500  25.0000 Du        
  20741 ****        -3.5000 -20.2500  25.2500 Du        
  20742 ****        -3.5000 -20.0000  14.2500 Du        
  20743 ****        -3.5000 -20.0000  14.5000 Du        
  20744 ****        -3.5000 -20.0000  14.7500 Du        
  20745 ****        -3.5000 -20.0000  15.0000 Du        
  20746 ****        -3.5000 -20.0000  15.2500 Du        
  20747 ****        -3.5000 -20.0000  15.5000 Du        
  20748 ****        -3.5000 -20.0000  15.7500 Du        
  20749 ****        -3.5000 -20.0000  16.0000 Du        
  20750 ****        -3.5000 -20.0000  16.2500 Du        
  20751 ****        -3.5000 -20.0000  16.5000 Du        
  20752 ****        -3.5000 -20.0000  24.5000 Du        
  20753 ****        -3.5000 -20.0000  24.7500 Du        
  20754 ****        -3.5000 -20.0000  25.0000 Du        
  20755 ****        -3.5000 -20.0000  25.2500 Du        
  20756 ****        -3.5000 -19.7500  15.0000 Du        
  20757 ****        -3.5000 -19.7500  15.2500 Du        
  20758 ****        -3.5000 -19.7500  15.5000 Du        
  20759 ****        -3.5000 -19.7500  15.7500 Du        
  20760 ****        -3.5000 -19.7500  16.0000 Du        
  20761 ****        -3.5000 -19.7500  16.2500 Du        
  20762 ****        -3.5000 -19.7500  16.5000 Du        
  20763 ****        -3.5000 -19.7500  16.7500 Du        
  20764 ****        -3.5000 -19.7500  17.0000 Du        
  20765 ****        -3.5000 -19.7500  24.2500 Du        
  20766 ****        -3.5000 -19.7500  24.5000 Du        
  20767 ****        -3.5000 -19.7500  24.7500 Du        
  20768 ****        -3.5000 -19.7500  25.0000 Du        
  20769 ****        -3.5000 -19.7500  25.2500 Du        
  20770 ****        -3.5000 -19.5000  15.5000 Du        
  20771 ****        -3.5000 -19.5000  15.7500 Du        
  20772 ****        -3.5000 -19.5000  16.0000 Du        
  20773 ****        -3.5000 -19.5000  16.2500 Du        
  20774 ****        -3.5000 -19.5000  16.5000 Du        
  20775 ****        -3.5000 -19.5000  16.7500 Du        
  20776 ****        -3.5000 -19.5000  24.0000 Du        
  20777 ****        -3.5000 -19.5000  24.2500 Du        
  20778 ****        -3.5000 -19.5000  24.5000 Du        
  20779 ****        -3.5000 -19.5000  24.7500 Du        
  20780 ****        -3.5000 -19.5000  25.0000 Du        
  20781 ****        -3.5000 -19.5000  25.2500 Du        
  20782 ****        -3.5000 -19.2500  15.7500 Du        
  20783 ****        -3.5000 -19.2500  16.0000 Du        
  20784 ****        -3.5000 -19.2500  16.2500 Du        
  20785 ****        -3.5000 -19.2500  16.5000 Du        
  20786 ****        -3.5000 -19.2500  16.7500 Du        
  20787 ****        -3.5000 -19.2500  24.0000 Du        
  20788 ****        -3.5000 -19.2500  24.2500 Du        
  20789 ****        -3.5000 -19.2500  24.5000 Du        
  20790 ****        -3.5000 -19.2500  24.7500 Du        
  20791 ****        -3.5000 -19.2500  25.0000 Du        
  20792 ****        -3.5000 -19.2500  25.2500 Du        
  20793 ****        -3.5000 -19.0000  15.7500 Du        
  20794 ****        -3.5000 -19.0000  16.0000 Du        
  20795 ****        -3.5000 -19.0000  16.2500 Du        
  20796 ****        -3.5000 -19.0000  16.5000 Du        
  20797 ****        -3.5000 -19.0000  16.7500 Du        
  20798 ****        -3.5000 -19.0000  24.0000 Du        
  20799 ****        -3.5000 -19.0000  24.2500 Du        
  20800 ****        -3.5000 -19.0000  24.5000 Du        
  20801 ****        -3.5000 -19.0000  24.7500 Du        
  20802 ****        -3.5000 -19.0000  25.0000 Du        
  20803 ****        -3.5000 -19.0000  25.2500 Du        
  20804 ****        -3.5000 -18.7500  16.0000 Du        
  20805 ****        -3.5000 -18.7500  16.2500 Du        
  20806 ****        -3.5000 -18.7500  16.5000 Du        
  20807 ****        -3.5000 -18.7500  24.0000 Du        
  20808 ****        -3.5000 -18.7500  24.2500 Du        
  20809 ****        -3.5000 -18.7500  24.5000 Du        
  20810 ****        -3.5000 -18.7500  24.7500 Du        
  20811 ****        -3.5000 -18.7500  25.0000 Du        
  20812 ****        -3.5000 -18.7500  25.2500 Du        
  20813 ****        -3.5000 -18.5000  16.0000 Du        
  20814 ****        -3.5000 -18.5000  16.2500 Du        
  20815 ****        -3.5000 -18.5000  24.0000 Du        
  20816 ****        -3.5000 -18.5000  24.2500 Du        
  20817 ****        -3.5000 -18.5000  24.5000 Du        
  20818 ****        -3.5000 -18.5000  24.7500 Du        
  20819 ****        -3.5000 -18.5000  25.0000 Du        
  20820 ****        -3.5000 -18.2500  16.2500 Du        
  20821 ****        -3.5000 -18.2500  24.0000 Du        
  20822 ****        -3.5000 -18.2500  24.2500 Du        
  20823 ****        -3.5000 -18.2500  24.5000 Du        
  20824 ****        -3.5000 -18.2500  24.7500 Du        
  20825 ****        -3.5000 -18.2500  25.0000 Du        
  20826 ****        -3.5000 -18.0000  16.2500 Du        
  20827 ****        -3.5000 -18.0000  16.5000 Du        
  20828 ****        -3.5000 -18.0000  24.0000 Du        
  20829 ****        -3.5000 -18.0000  24.2500 Du        
  20830 ****        -3.5000 -18.0000  24.5000 Du        
  20831 ****        -3.5000 -18.0000  24.7500 Du        
  20832 ****        -3.5000 -17.7500  16.2500 Du        
  20833 ****        -3.5000 -17.7500  16.5000 Du        
  20834 ****        -3.5000 -17.7500  16.7500 Du        
  20835 ****        -3.5000 -17.7500  24.0000 Du        
  20836 ****        -3.5000 -17.7500  24.2500 Du        
  20837 ****        -3.5000 -17.7500  24.5000 Du        
  20838 ****        -3.5000 -17.7500  24.7500 Du        
  20839 ****        -3.5000 -17.5000  16.5000 Du        
  20840 ****        -3.5000 -17.5000  16.7500 Du        
  20841 ****        -3.5000 -17.5000  23.7500 Du        
  20842 ****        -3.5000 -17.5000  24.0000 Du        
  20843 ****        -3.5000 -17.5000  24.2500 Du        
  20844 ****        -3.5000 -17.5000  24.5000 Du        
  20845 ****        -3.5000 -17.2500  16.7500 Du        
  20846 ****        -3.5000 -17.2500  17.0000 Du        
  20847 ****        -3.5000 -17.2500  23.7500 Du        
  20848 ****        -3.5000 -17.2500  24.0000 Du        
  20849 ****        -3.5000 -17.2500  24.2500 Du        
  20850 ****        -3.5000 -17.0000  16.7500 Du        
  20851 ****        -3.5000 -17.0000  17.0000 Du        
  20852 ****        -3.5000 -17.0000  17.2500 Du        
  20853 ****        -3.5000 -17.0000  23.5000 Du        
  20854 ****        -3.5000 -17.0000  23.7500 Du        
  20855 ****        -3.5000 -17.0000  24.0000 Du        
  20856 ****        -3.5000 -17.0000  24.2500 Du        
  20857 ****        -3.5000 -16.7500  16.7500 Du        
  20858 ****        -3.5000 -16.7500  17.0000 Du        
  20859 ****        -3.5000 -16.7500  17.2500 Du        
  20860 ****        -3.5000 -16.7500  17.5000 Du        
  20861 ****        -3.5000 -16.7500  23.5000 Du        
  20862 ****        -3.5000 -16.7500  23.7500 Du        
  20863 ****        -3.5000 -16.7500  24.0000 Du        
  20864 ****        -3.5000 -16.5000  16.7500 Du        
  20865 ****        -3.5000 -16.5000  17.0000 Du        
  20866 ****        -3.5000 -16.5000  17.2500 Du        
  20867 ****        -3.5000 -16.5000  17.5000 Du        
  20868 ****        -3.5000 -16.5000  17.7500 Du        
  20869 ****        -3.5000 -16.5000  18.0000 Du        
  20870 ****        -3.5000 -16.5000  23.2500 Du        
  20871 ****        -3.5000 -16.5000  23.5000 Du        
  20872 ****        -3.5000 -16.5000  23.7500 Du        
  20873 ****        -3.5000 -16.2500  17.0000 Du        
  20874 ****        -3.5000 -16.2500  17.2500 Du        
  20875 ****        -3.5000 -16.2500  17.5000 Du        
  20876 ****        -3.5000 -16.2500  17.7500 Du        
  20877 ****        -3.5000 -16.2500  18.0000 Du        
  20878 ****        -3.5000 -16.2500  18.2500 Du        
  20879 ****        -3.5000 -16.2500  23.0000 Du        
  20880 ****        -3.5000 -16.2500  23.2500 Du        
  20881 ****        -3.5000 -16.2500  23.5000 Du        
  20882 ****        -3.5000 -16.0000  17.0000 Du        
  20883 ****        -3.5000 -16.0000  17.2500 Du        
  20884 ****        -3.5000 -16.0000  17.5000 Du        
  20885 ****        -3.5000 -16.0000  17.7500 Du        
  20886 ****        -3.5000 -16.0000  18.0000 Du        
  20887 ****        -3.5000 -16.0000  18.2500 Du        
  20888 ****        -3.5000 -16.0000  18.5000 Du        
  20889 ****        -3.5000 -16.0000  18.7500 Du        
  20890 ****        -3.5000 -16.0000  23.0000 Du        
  20891 ****        -3.5000 -16.0000  23.2500 Du        
  20892 ****        -3.5000 -16.0000  23.5000 Du        
  20893 ****        -3.5000 -15.7500  17.2500 Du        
  20894 ****        -3.5000 -15.7500  17.5000 Du        
  20895 ****        -3.5000 -15.7500  17.7500 Du        
  20896 ****        -3.5000 -15.7500  18.0000 Du        
  20897 ****        -3.5000 -15.7500  18.2500 Du        
  20898 ****        -3.5000 -15.7500  18.5000 Du        
  20899 ****        -3.5000 -15.7500  18.7500 Du        
  20900 ****        -3.5000 -15.7500  19.0000 Du        
  20901 ****        -3.5000 -15.7500  19.2500 Du        
  20902 ****        -3.5000 -15.5000  17.2500 Du        
  20903 ****        -3.5000 -15.5000  17.5000 Du        
  20904 ****        -3.5000 -15.5000  17.7500 Du        
  20905 ****        -3.5000 -15.5000  18.0000 Du        
  20906 ****        -3.5000 -15.5000  18.2500 Du        
  20907 ****        -3.5000 -15.5000  18.5000 Du        
  20908 ****        -3.5000 -15.5000  18.7500 Du        
  20909 ****        -3.5000 -15.5000  19.0000 Du        
  20910 ****        -3.5000 -15.5000  19.2500 Du        
  20911 ****        -3.5000 -15.5000  19.5000 Du        
  20912 ****        -3.5000 -15.2500  17.2500 Du        
  20913 ****        -3.5000 -15.2500  17.5000 Du        
  20914 ****        -3.5000 -15.2500  17.7500 Du        
  20915 ****        -3.5000 -15.2500  18.0000 Du        
  20916 ****        -3.5000 -15.2500  18.2500 Du        
  20917 ****        -3.5000 -15.2500  18.5000 Du        
  20918 ****        -3.5000 -15.2500  18.7500 Du        
  20919 ****        -3.5000 -15.2500  19.0000 Du        
  20920 ****        -3.5000 -15.2500  19.2500 Du        
  20921 ****        -3.5000 -15.2500  19.5000 Du        
  20922 ****        -3.5000 -15.2500  19.7500 Du        
  20923 ****        -3.5000 -15.0000  17.2500 Du        
  20924 ****        -3.5000 -15.0000  17.5000 Du        
  20925 ****        -3.5000 -15.0000  17.7500 Du        
  20926 ****        -3.5000 -15.0000  18.0000 Du        
  20927 ****        -3.5000 -15.0000  18.2500 Du        
  20928 ****        -3.5000 -15.0000  18.5000 Du        
  20929 ****        -3.5000 -15.0000  18.7500 Du        
  20930 ****        -3.5000 -15.0000  19.0000 Du        
  20931 ****        -3.5000 -15.0000  19.2500 Du        
  20932 ****        -3.5000 -15.0000  19.5000 Du        
  20933 ****        -3.5000 -15.0000  19.7500 Du        
  20934 ****        -3.5000 -14.7500  17.5000 Du        
  20935 ****        -3.5000 -14.7500  17.7500 Du        
  20936 ****        -3.5000 -14.7500  18.0000 Du        
  20937 ****        -3.5000 -14.7500  18.2500 Du        
  20938 ****        -3.5000 -14.7500  18.5000 Du        
  20939 ****        -3.5000 -14.7500  18.7500 Du        
  20940 ****        -3.5000 -14.7500  19.0000 Du        
  20941 ****        -3.5000 -14.7500  19.2500 Du        
  20942 ****        -3.5000 -14.7500  19.5000 Du        
  20943 ****        -3.5000 -14.5000  17.5000 Du        
  20944 ****        -3.5000 -14.5000  17.7500 Du        
  20945 ****        -3.5000 -14.5000  18.0000 Du        
  20946 ****        -3.5000 -14.5000  18.2500 Du        
  20947 ****        -3.5000 -14.5000  18.5000 Du        
  20948 ****        -3.5000 -14.5000  19.0000 Du        
  20949 ****        -3.5000 -14.5000  19.2500 Du        
  20950 ****        -3.5000 -14.5000  19.5000 Du        
  20951 ****        -3.5000  -8.0000  19.2500 Du        
  20952 ****        -3.5000  -8.0000  19.7500 Du        
  20953 ****        -3.5000  -8.0000  20.0000 Du        
  20954 ****        -3.5000  -7.7500  18.7500 Du        
  20955 ****        -3.5000  -7.7500  19.0000 Du        
  20956 ****        -3.5000  -7.7500  19.2500 Du        
  20957 ****        -3.5000  -7.7500  19.5000 Du        
  20958 ****        -3.5000  -7.7500  19.7500 Du        
  20959 ****        -3.5000  -7.7500  20.0000 Du        
  20960 ****        -3.5000  -7.7500  20.2500 Du        
  20961 ****        -3.5000  -7.5000  18.2500 Du        
  20962 ****        -3.5000  -7.5000  18.5000 Du        
  20963 ****        -3.5000  -7.5000  18.7500 Du        
  20964 ****        -3.5000  -7.5000  19.0000 Du        
  20965 ****        -3.5000  -7.5000  19.2500 Du        
  20966 ****        -3.5000  -7.5000  19.5000 Du        
  20967 ****        -3.5000  -7.5000  19.7500 Du        
  20968 ****        -3.5000  -7.5000  20.0000 Du        
  20969 ****        -3.5000  -7.5000  20.2500 Du        
  20970 ****        -3.5000  -7.2500  18.2500 Du        
  20971 ****        -3.5000  -7.2500  18.5000 Du        
  20972 ****        -3.5000  -7.2500  18.7500 Du        
  20973 ****        -3.5000  -7.2500  19.0000 Du        
  20974 ****        -3.5000  -7.2500  19.2500 Du        
  20975 ****        -3.5000  -7.2500  19.5000 Du        
  20976 ****        -3.5000  -7.2500  19.7500 Du        
  20977 ****        -3.5000  -7.2500  20.0000 Du        
  20978 ****        -3.5000  -7.2500  20.2500 Du        
  20979 ****        -3.5000  -7.0000  18.5000 Du        
  20980 ****        -3.5000  -7.0000  18.7500 Du        
  20981 ****        -3.5000  -7.0000  19.0000 Du        
  20982 ****        -3.5000  -7.0000  19.2500 Du        
  20983 ****        -3.5000  -7.0000  19.5000 Du        
  20984 ****        -3.5000  -7.0000  19.7500 Du        
  20985 ****        -3.5000  -7.0000  20.0000 Du        
  20986 ****        -3.5000  -6.7500  18.7500 Du        
  20987 ****        -3.5000  -6.7500  19.0000 Du        
  20988 ****        -3.5000  -6.7500  19.2500 Du        
  20989 ****        -3.5000  -6.7500  19.5000 Du        
  20990 ****        -3.5000  -6.5000  19.0000 Du        
  20991 ****        -3.5000  -3.5000  18.7500 Du        
  20992 ****        -3.5000  -3.5000  19.0000 Du        
  20993 ****        -3.5000  -3.2500  18.2500 Du        
  20994 ****        -3.5000  -3.2500  18.5000 Du        
  20995 ****        -3.5000  -3.2500  18.7500 Du        
  20996 ****        -3.5000  -3.2500  19.0000 Du        
  20997 ****        -3.5000  -3.2500  19.2500 Du        
  20998 ****        -3.5000  -3.0000  18.2500 Du        
  20999 ****        -3.5000  -3.0000  18.5000 Du        
  21000 ****        -3.5000  -3.0000  18.7500 Du        
  21001 ****        -3.5000  -3.0000  19.0000 Du        
  21002 ****        -3.5000  -3.0000  19.2500 Du        
  21003 ****        -3.5000  -2.7500  18.2500 Du        
  21004 ****        -3.5000  -2.7500  18.5000 Du        
  21005 ****        -3.5000  -2.7500  18.7500 Du        
  21006 ****        -3.5000  -2.7500  19.0000 Du        
  21007 ****        -3.5000  -2.7500  19.2500 Du        
  21008 ****        -3.5000   5.0000  10.7500 Du        
  21009 ****        -3.5000   5.0000  11.0000 Du        
  21010 ****        -3.5000   5.0000  11.5000 Du        
  21011 ****        -3.5000   5.2500  10.7500 Du        
  21012 ****        -3.5000   5.2500  11.0000 Du        
  21013 ****        -3.5000   5.2500  11.2500 Du        
  21014 ****        -3.5000   5.2500  11.5000 Du        
  21015 ****        -3.5000   5.5000  10.7500 Du        
  21016 ****        -3.5000   5.5000  11.0000 Du        
  21017 ****        -3.2500 -20.5000  24.7500 Du        
  21018 ****        -3.2500 -20.5000  25.0000 Du        
  21019 ****        -3.2500 -20.5000  25.2500 Du        
  21020 ****        -3.2500 -20.2500  14.0000 Du        
  21021 ****        -3.2500 -20.2500  14.2500 Du        
  21022 ****        -3.2500 -20.2500  14.5000 Du        
  21023 ****        -3.2500 -20.2500  14.7500 Du        
  21024 ****        -3.2500 -20.2500  15.0000 Du        
  21025 ****        -3.2500 -20.2500  15.2500 Du        
  21026 ****        -3.2500 -20.2500  15.5000 Du        
  21027 ****        -3.2500 -20.2500  15.7500 Du        
  21028 ****        -3.2500 -20.2500  24.5000 Du        
  21029 ****        -3.2500 -20.2500  24.7500 Du        
  21030 ****        -3.2500 -20.2500  25.0000 Du        
  21031 ****        -3.2500 -20.2500  25.2500 Du        
  21032 ****        -3.2500 -20.0000  13.7500 Du        
  21033 ****        -3.2500 -20.0000  14.0000 Du        
  21034 ****        -3.2500 -20.0000  14.2500 Du        
  21035 ****        -3.2500 -20.0000  14.5000 Du        
  21036 ****        -3.2500 -20.0000  14.7500 Du        
  21037 ****        -3.2500 -20.0000  15.0000 Du        
  21038 ****        -3.2500 -20.0000  15.2500 Du        
  21039 ****        -3.2500 -20.0000  15.5000 Du        
  21040 ****        -3.2500 -20.0000  15.7500 Du        
  21041 ****        -3.2500 -20.0000  16.0000 Du        
  21042 ****        -3.2500 -20.0000  16.2500 Du        
  21043 ****        -3.2500 -20.0000  24.2500 Du        
  21044 ****        -3.2500 -20.0000  24.5000 Du        
  21045 ****        -3.2500 -20.0000  24.7500 Du        
  21046 ****        -3.2500 -20.0000  25.0000 Du        
  21047 ****        -3.2500 -20.0000  25.2500 Du        
  21048 ****        -3.2500 -19.7500  13.5000 Du        
  21049 ****        -3.2500 -19.7500  13.7500 Du        
  21050 ****        -3.2500 -19.7500  14.0000 Du        
  21051 ****        -3.2500 -19.7500  14.2500 Du        
  21052 ****        -3.2500 -19.7500  14.5000 Du        
  21053 ****        -3.2500 -19.7500  14.7500 Du        
  21054 ****        -3.2500 -19.7500  15.0000 Du        
  21055 ****        -3.2500 -19.7500  15.2500 Du        
  21056 ****        -3.2500 -19.7500  15.5000 Du        
  21057 ****        -3.2500 -19.7500  15.7500 Du        
  21058 ****        -3.2500 -19.7500  16.0000 Du        
  21059 ****        -3.2500 -19.7500  16.2500 Du        
  21060 ****        -3.2500 -19.7500  16.5000 Du        
  21061 ****        -3.2500 -19.7500  24.0000 Du        
  21062 ****        -3.2500 -19.7500  24.2500 Du        
  21063 ****        -3.2500 -19.7500  24.5000 Du        
  21064 ****        -3.2500 -19.7500  24.7500 Du        
  21065 ****        -3.2500 -19.7500  25.0000 Du        
  21066 ****        -3.2500 -19.7500  25.2500 Du        
  21067 ****        -3.2500 -19.5000  13.5000 Du        
  21068 ****        -3.2500 -19.5000  13.7500 Du        
  21069 ****        -3.2500 -19.5000  14.0000 Du        
  21070 ****        -3.2500 -19.5000  14.2500 Du        
  21071 ****        -3.2500 -19.5000  14.5000 Du        
  21072 ****        -3.2500 -19.5000  14.7500 Du        
  21073 ****        -3.2500 -19.5000  15.0000 Du        
  21074 ****        -3.2500 -19.5000  15.2500 Du        
  21075 ****        -3.2500 -19.5000  15.5000 Du        
  21076 ****        -3.2500 -19.5000  15.7500 Du        
  21077 ****        -3.2500 -19.5000  16.0000 Du        
  21078 ****        -3.2500 -19.5000  16.2500 Du        
  21079 ****        -3.2500 -19.5000  16.5000 Du        
  21080 ****        -3.2500 -19.5000  24.0000 Du        
  21081 ****        -3.2500 -19.5000  24.2500 Du        
  21082 ****        -3.2500 -19.5000  24.5000 Du        
  21083 ****        -3.2500 -19.5000  24.7500 Du        
  21084 ****        -3.2500 -19.5000  25.0000 Du        
  21085 ****        -3.2500 -19.5000  25.2500 Du        
  21086 ****        -3.2500 -19.2500  14.5000 Du        
  21087 ****        -3.2500 -19.2500  14.7500 Du        
  21088 ****        -3.2500 -19.2500  15.0000 Du        
  21089 ****        -3.2500 -19.2500  15.2500 Du        
  21090 ****        -3.2500 -19.2500  15.5000 Du        
  21091 ****        -3.2500 -19.2500  15.7500 Du        
  21092 ****        -3.2500 -19.2500  16.0000 Du        
  21093 ****        -3.2500 -19.2500  16.2500 Du        
  21094 ****        -3.2500 -19.2500  16.5000 Du        
  21095 ****        -3.2500 -19.2500  24.0000 Du        
  21096 ****        -3.2500 -19.2500  24.2500 Du        
  21097 ****        -3.2500 -19.2500  24.5000 Du        
  21098 ****        -3.2500 -19.2500  24.7500 Du        
  21099 ****        -3.2500 -19.2500  25.0000 Du        
  21100 ****        -3.2500 -19.2500  25.2500 Du        
  21101 ****        -3.2500 -19.0000  15.0000 Du        
  21102 ****        -3.2500 -19.0000  15.2500 Du        
  21103 ****        -3.2500 -19.0000  15.5000 Du        
  21104 ****        -3.2500 -19.0000  15.7500 Du        
  21105 ****        -3.2500 -19.0000  16.0000 Du        
  21106 ****        -3.2500 -19.0000  16.2500 Du        
  21107 ****        -3.2500 -19.0000  24.0000 Du        
  21108 ****        -3.2500 -19.0000  24.2500 Du        
  21109 ****        -3.2500 -19.0000  24.5000 Du        
  21110 ****        -3.2500 -19.0000  24.7500 Du        
  21111 ****        -3.2500 -19.0000  25.0000 Du        
  21112 ****        -3.2500 -19.0000  25.2500 Du        
  21113 ****        -3.2500 -18.7500  15.5000 Du        
  21114 ****        -3.2500 -18.7500  15.7500 Du        
  21115 ****        -3.2500 -18.7500  16.0000 Du        
  21116 ****        -3.2500 -18.7500  16.2500 Du        
  21117 ****        -3.2500 -18.7500  24.0000 Du        
  21118 ****        -3.2500 -18.7500  24.2500 Du        
  21119 ****        -3.2500 -18.7500  24.5000 Du        
  21120 ****        -3.2500 -18.7500  24.7500 Du        
  21121 ****        -3.2500 -18.7500  25.0000 Du        
  21122 ****        -3.2500 -18.5000  15.7500 Du        
  21123 ****        -3.2500 -18.5000  16.0000 Du        
  21124 ****        -3.2500 -18.5000  16.2500 Du        
  21125 ****        -3.2500 -18.5000  24.0000 Du        
  21126 ****        -3.2500 -18.5000  24.2500 Du        
  21127 ****        -3.2500 -18.5000  24.5000 Du        
  21128 ****        -3.2500 -18.5000  24.7500 Du        
  21129 ****        -3.2500 -18.5000  25.0000 Du        
  21130 ****        -3.2500 -18.2500  15.7500 Du        
  21131 ****        -3.2500 -18.2500  16.0000 Du        
  21132 ****        -3.2500 -18.2500  16.2500 Du        
  21133 ****        -3.2500 -18.2500  24.0000 Du        
  21134 ****        -3.2500 -18.2500  24.2500 Du        
  21135 ****        -3.2500 -18.2500  24.5000 Du        
  21136 ****        -3.2500 -18.2500  24.7500 Du        
  21137 ****        -3.2500 -18.0000  16.0000 Du        
  21138 ****        -3.2500 -18.0000  16.2500 Du        
  21139 ****        -3.2500 -18.0000  24.0000 Du        
  21140 ****        -3.2500 -18.0000  24.2500 Du        
  21141 ****        -3.2500 -18.0000  24.5000 Du        
  21142 ****        -3.2500 -18.0000  24.7500 Du        
  21143 ****        -3.2500 -17.7500  16.0000 Du        
  21144 ****        -3.2500 -17.7500  16.2500 Du        
  21145 ****        -3.2500 -17.7500  24.0000 Du        
  21146 ****        -3.2500 -17.7500  24.2500 Du        
  21147 ****        -3.2500 -17.7500  24.5000 Du        
  21148 ****        -3.2500 -17.5000  16.2500 Du        
  21149 ****        -3.2500 -17.5000  24.0000 Du        
  21150 ****        -3.2500 -17.5000  24.2500 Du        
  21151 ****        -3.2500 -17.2500  16.2500 Du        
  21152 ****        -3.2500 -17.2500  16.5000 Du        
  21153 ****        -3.2500 -17.2500  16.7500 Du        
  21154 ****        -3.2500 -17.2500  24.0000 Du        
  21155 ****        -3.2500 -17.2500  24.2500 Du        
  21156 ****        -3.2500 -17.0000  16.2500 Du        
  21157 ****        -3.2500 -17.0000  16.5000 Du        
  21158 ****        -3.2500 -17.0000  16.7500 Du        
  21159 ****        -3.2500 -17.0000  17.0000 Du        
  21160 ****        -3.2500 -17.0000  23.7500 Du        
  21161 ****        -3.2500 -17.0000  24.0000 Du        
  21162 ****        -3.2500 -16.7500  16.5000 Du        
  21163 ****        -3.2500 -16.7500  16.7500 Du        
  21164 ****        -3.2500 -16.7500  17.0000 Du        
  21165 ****        -3.2500 -16.7500  17.2500 Du        
  21166 ****        -3.2500 -16.7500  23.7500 Du        
  21167 ****        -3.2500 -16.5000  16.5000 Du        
  21168 ****        -3.2500 -16.5000  16.7500 Du        
  21169 ****        -3.2500 -16.5000  17.0000 Du        
  21170 ****        -3.2500 -16.5000  17.2500 Du        
  21171 ****        -3.2500 -16.5000  17.5000 Du        
  21172 ****        -3.2500 -16.5000  17.7500 Du        
  21173 ****        -3.2500 -16.5000  18.0000 Du        
  21174 ****        -3.2500 -16.2500  16.7500 Du        
  21175 ****        -3.2500 -16.2500  17.0000 Du        
  21176 ****        -3.2500 -16.2500  17.2500 Du        
  21177 ****        -3.2500 -16.2500  17.5000 Du        
  21178 ****        -3.2500 -16.2500  17.7500 Du        
  21179 ****        -3.2500 -16.2500  18.0000 Du        
  21180 ****        -3.2500 -16.2500  18.2500 Du        
  21181 ****        -3.2500 -16.0000  16.7500 Du        
  21182 ****        -3.2500 -16.0000  17.0000 Du        
  21183 ****        -3.2500 -16.0000  17.2500 Du        
  21184 ****        -3.2500 -16.0000  17.5000 Du        
  21185 ****        -3.2500 -16.0000  17.7500 Du        
  21186 ****        -3.2500 -16.0000  18.0000 Du        
  21187 ****        -3.2500 -16.0000  18.2500 Du        
  21188 ****        -3.2500 -16.0000  18.5000 Du        
  21189 ****        -3.2500 -16.0000  18.7500 Du        
  21190 ****        -3.2500 -15.7500  17.0000 Du        
  21191 ****        -3.2500 -15.7500  17.2500 Du        
  21192 ****        -3.2500 -15.7500  17.5000 Du        
  21193 ****        -3.2500 -15.7500  17.7500 Du        
  21194 ****        -3.2500 -15.7500  18.0000 Du        
  21195 ****        -3.2500 -15.7500  18.2500 Du        
  21196 ****        -3.2500 -15.7500  18.5000 Du        
  21197 ****        -3.2500 -15.7500  18.7500 Du        
  21198 ****        -3.2500 -15.7500  19.0000 Du        
  21199 ****        -3.2500 -15.7500  19.2500 Du        
  21200 ****        -3.2500 -15.5000  17.0000 Du        
  21201 ****        -3.2500 -15.5000  17.2500 Du        
  21202 ****        -3.2500 -15.5000  17.5000 Du        
  21203 ****        -3.2500 -15.5000  17.7500 Du        
  21204 ****        -3.2500 -15.5000  18.0000 Du        
  21205 ****        -3.2500 -15.5000  18.2500 Du        
  21206 ****        -3.2500 -15.5000  18.5000 Du        
  21207 ****        -3.2500 -15.5000  18.7500 Du        
  21208 ****        -3.2500 -15.5000  19.0000 Du        
  21209 ****        -3.2500 -15.5000  19.2500 Du        
  21210 ****        -3.2500 -15.5000  19.5000 Du        
  21211 ****        -3.2500 -15.2500  17.2500 Du        
  21212 ****        -3.2500 -15.2500  17.5000 Du        
  21213 ****        -3.2500 -15.2500  17.7500 Du        
  21214 ****        -3.2500 -15.2500  18.0000 Du        
  21215 ****        -3.2500 -15.2500  18.2500 Du        
  21216 ****        -3.2500 -15.2500  18.5000 Du        
  21217 ****        -3.2500 -15.2500  18.7500 Du        
  21218 ****        -3.2500 -15.2500  19.0000 Du        
  21219 ****        -3.2500 -15.2500  19.2500 Du        
  21220 ****        -3.2500 -15.2500  19.5000 Du        
  21221 ****        -3.2500 -15.0000  17.2500 Du        
  21222 ****        -3.2500 -15.0000  17.5000 Du        
  21223 ****        -3.2500 -15.0000  17.7500 Du        
  21224 ****        -3.2500 -15.0000  18.0000 Du        
  21225 ****        -3.2500 -15.0000  18.2500 Du        
  21226 ****        -3.2500 -15.0000  18.5000 Du        
  21227 ****        -3.2500 -15.0000  18.7500 Du        
  21228 ****        -3.2500 -15.0000  19.0000 Du        
  21229 ****        -3.2500 -15.0000  19.2500 Du        
  21230 ****        -3.2500 -15.0000  19.5000 Du        
  21231 ****        -3.2500 -14.7500  17.2500 Du        
  21232 ****        -3.2500 -14.7500  17.5000 Du        
  21233 ****        -3.2500 -14.7500  17.7500 Du        
  21234 ****        -3.2500 -14.7500  18.0000 Du        
  21235 ****        -3.2500 -14.7500  18.2500 Du        
  21236 ****        -3.2500 -14.7500  18.5000 Du        
  21237 ****        -3.2500 -14.7500  18.7500 Du        
  21238 ****        -3.2500 -14.7500  19.0000 Du        
  21239 ****        -3.2500 -14.7500  19.2500 Du        
  21240 ****        -3.2500 -14.7500  19.5000 Du        
  21241 ****        -3.2500 -14.5000  17.5000 Du        
  21242 ****        -3.2500 -14.5000  17.7500 Du        
  21243 ****        -3.2500 -14.5000  18.0000 Du        
  21244 ****        -3.2500 -14.5000  18.2500 Du        
  21245 ****        -3.2500 -14.5000  18.5000 Du        
  21246 ****        -3.2500 -14.5000  18.7500 Du        
  21247 ****        -3.2500 -14.5000  19.0000 Du        
  21248 ****        -3.2500 -14.5000  19.2500 Du        
  21249 ****        -3.2500 -14.2500  17.7500 Du        
  21250 ****        -3.2500 -14.2500  18.0000 Du        
  21251 ****        -3.2500 -14.2500  18.2500 Du        
  21252 ****        -3.2500 -14.2500  18.5000 Du        
  21253 ****        -3.2500 -14.2500  18.7500 Du        
  21254 ****        -3.2500 -14.2500  19.0000 Du        
  21255 ****        -3.2500  -8.2500  19.2500 Du        
  21256 ****        -3.2500  -8.0000  17.2500 Du        
  21257 ****        -3.2500  -8.0000  17.5000 Du        
  21258 ****        -3.2500  -8.0000  17.7500 Du        
  21259 ****        -3.2500  -8.0000  18.0000 Du        
  21260 ****        -3.2500  -8.0000  18.2500 Du        
  21261 ****        -3.2500  -8.0000  18.5000 Du        
  21262 ****        -3.2500  -8.0000  18.7500 Du        
  21263 ****        -3.2500  -8.0000  19.0000 Du        
  21264 ****        -3.2500  -8.0000  19.2500 Du        
  21265 ****        -3.2500  -8.0000  19.5000 Du        
  21266 ****        -3.2500  -8.0000  19.7500 Du        
  21267 ****        -3.2500  -8.0000  20.0000 Du        
  21268 ****        -3.2500  -7.7500  17.5000 Du        
  21269 ****        -3.2500  -7.7500  17.7500 Du        
  21270 ****        -3.2500  -7.7500  18.0000 Du        
  21271 ****        -3.2500  -7.7500  18.2500 Du        
  21272 ****        -3.2500  -7.7500  18.5000 Du        
  21273 ****        -3.2500  -7.7500  18.7500 Du        
  21274 ****        -3.2500  -7.7500  19.0000 Du        
  21275 ****        -3.2500  -7.7500  19.2500 Du        
  21276 ****        -3.2500  -7.7500  19.5000 Du        
  21277 ****        -3.2500  -7.7500  19.7500 Du        
  21278 ****        -3.2500  -7.7500  20.0000 Du        
  21279 ****        -3.2500  -7.5000  18.0000 Du        
  21280 ****        -3.2500  -7.5000  18.2500 Du        
  21281 ****        -3.2500  -7.5000  18.5000 Du        
  21282 ****        -3.2500  -7.5000  18.7500 Du        
  21283 ****        -3.2500  -7.5000  19.0000 Du        
  21284 ****        -3.2500  -7.5000  19.2500 Du        
  21285 ****        -3.2500  -7.5000  19.5000 Du        
  21286 ****        -3.2500  -7.5000  19.7500 Du        
  21287 ****        -3.2500  -7.5000  20.0000 Du        
  21288 ****        -3.2500  -7.2500  18.2500 Du        
  21289 ****        -3.2500  -7.2500  18.5000 Du        
  21290 ****        -3.2500  -7.2500  18.7500 Du        
  21291 ****        -3.2500  -7.2500  19.0000 Du        
  21292 ****        -3.2500  -7.2500  19.2500 Du        
  21293 ****        -3.2500  -7.2500  19.5000 Du        
  21294 ****        -3.2500  -7.2500  19.7500 Du        
  21295 ****        -3.2500  -7.0000  18.5000 Du        
  21296 ****        -3.2500  -7.0000  18.7500 Du        
  21297 ****        -3.2500  -7.0000  19.0000 Du        
  21298 ****        -3.2500  -7.0000  19.2500 Du        
  21299 ****        -3.2500  -6.7500  18.7500 Du        
  21300 ****        -3.2500  -6.7500  19.0000 Du        
  21301 ****        -3.2500  -3.5000  18.5000 Du        
  21302 ****        -3.2500  -3.5000  18.7500 Du        
  21303 ****        -3.2500  -3.5000  19.0000 Du        
  21304 ****        -3.2500  -3.2500  18.2500 Du        
  21305 ****        -3.2500  -3.2500  18.5000 Du        
  21306 ****        -3.2500  -3.2500  18.7500 Du        
  21307 ****        -3.2500  -3.2500  19.0000 Du        
  21308 ****        -3.2500  -3.2500  19.2500 Du        
  21309 ****        -3.2500  -3.0000  18.2500 Du        
  21310 ****        -3.2500  -3.0000  18.5000 Du        
  21311 ****        -3.2500  -3.0000  18.7500 Du        
  21312 ****        -3.2500  -3.0000  19.0000 Du        
  21313 ****        -3.2500  -3.0000  19.2500 Du        
  21314 ****        -3.2500  -2.7500  18.2500 Du        
  21315 ****        -3.2500  -2.7500  18.5000 Du        
  21316 ****        -3.2500  -2.7500  18.7500 Du        
  21317 ****        -3.2500  -2.7500  19.0000 Du        
  21318 ****        -3.2500   5.0000  10.7500 Du        
  21319 ****        -3.2500   5.0000  11.0000 Du        
  21320 ****        -3.2500   5.2500  10.7500 Du        
  21321 ****        -3.2500   5.2500  11.0000 Du        
  21322 ****        -3.0000 -20.2500  14.0000 Du        
  21323 ****        -3.0000 -20.2500  24.5000 Du        
  21324 ****        -3.0000 -20.2500  24.7500 Du        
  21325 ****        -3.0000 -20.0000  13.7500 Du        
  21326 ****        -3.0000 -20.0000  14.0000 Du        
  21327 ****        -3.0000 -20.0000  14.2500 Du        
  21328 ****        -3.0000 -20.0000  14.5000 Du        
  21329 ****        -3.0000 -20.0000  14.7500 Du        
  21330 ****        -3.0000 -20.0000  15.0000 Du        
  21331 ****        -3.0000 -20.0000  15.2500 Du        
  21332 ****        -3.0000 -20.0000  15.5000 Du        
  21333 ****        -3.0000 -20.0000  15.7500 Du        
  21334 ****        -3.0000 -20.0000  16.0000 Du        
  21335 ****        -3.0000 -20.0000  24.2500 Du        
  21336 ****        -3.0000 -20.0000  24.5000 Du        
  21337 ****        -3.0000 -20.0000  24.7500 Du        
  21338 ****        -3.0000 -19.7500  13.5000 Du        
  21339 ****        -3.0000 -19.7500  13.7500 Du        
  21340 ****        -3.0000 -19.7500  14.0000 Du        
  21341 ****        -3.0000 -19.7500  14.2500 Du        
  21342 ****        -3.0000 -19.7500  14.5000 Du        
  21343 ****        -3.0000 -19.7500  14.7500 Du        
  21344 ****        -3.0000 -19.7500  15.0000 Du        
  21345 ****        -3.0000 -19.7500  15.2500 Du        
  21346 ****        -3.0000 -19.7500  15.5000 Du        
  21347 ****        -3.0000 -19.7500  15.7500 Du        
  21348 ****        -3.0000 -19.7500  16.0000 Du        
  21349 ****        -3.0000 -19.7500  16.2500 Du        
  21350 ****        -3.0000 -19.7500  24.0000 Du        
  21351 ****        -3.0000 -19.7500  24.2500 Du        
  21352 ****        -3.0000 -19.7500  24.5000 Du        
  21353 ****        -3.0000 -19.7500  24.7500 Du        
  21354 ****        -3.0000 -19.5000  13.5000 Du        
  21355 ****        -3.0000 -19.5000  13.7500 Du        
  21356 ****        -3.0000 -19.5000  14.0000 Du        
  21357 ****        -3.0000 -19.5000  14.2500 Du        
  21358 ****        -3.0000 -19.5000  14.5000 Du        
  21359 ****        -3.0000 -19.5000  14.7500 Du        
  21360 ****        -3.0000 -19.5000  15.0000 Du        
  21361 ****        -3.0000 -19.5000  15.2500 Du        
  21362 ****        -3.0000 -19.5000  15.5000 Du        
  21363 ****        -3.0000 -19.5000  15.7500 Du        
  21364 ****        -3.0000 -19.5000  16.0000 Du        
  21365 ****        -3.0000 -19.5000  16.2500 Du        
  21366 ****        -3.0000 -19.5000  24.0000 Du        
  21367 ****        -3.0000 -19.5000  24.2500 Du        
  21368 ****        -3.0000 -19.5000  24.5000 Du        
  21369 ****        -3.0000 -19.5000  24.7500 Du        
  21370 ****        -3.0000 -19.2500  13.5000 Du        
  21371 ****        -3.0000 -19.2500  13.7500 Du        
  21372 ****        -3.0000 -19.2500  14.0000 Du        
  21373 ****        -3.0000 -19.2500  14.2500 Du        
  21374 ****        -3.0000 -19.2500  14.5000 Du        
  21375 ****        -3.0000 -19.2500  14.7500 Du        
  21376 ****        -3.0000 -19.2500  15.0000 Du        
  21377 ****        -3.0000 -19.2500  15.2500 Du        
  21378 ****        -3.0000 -19.2500  15.5000 Du        
  21379 ****        -3.0000 -19.2500  15.7500 Du        
  21380 ****        -3.0000 -19.2500  16.0000 Du        
  21381 ****        -3.0000 -19.2500  16.2500 Du        
  21382 ****        -3.0000 -19.2500  24.2500 Du        
  21383 ****        -3.0000 -19.2500  24.5000 Du        
  21384 ****        -3.0000 -19.2500  24.7500 Du        
  21385 ****        -3.0000 -19.0000  14.2500 Du        
  21386 ****        -3.0000 -19.0000  14.5000 Du        
  21387 ****        -3.0000 -19.0000  14.7500 Du        
  21388 ****        -3.0000 -19.0000  15.0000 Du        
  21389 ****        -3.0000 -19.0000  15.2500 Du        
  21390 ****        -3.0000 -19.0000  15.5000 Du        
  21391 ****        -3.0000 -19.0000  15.7500 Du        
  21392 ****        -3.0000 -19.0000  16.0000 Du        
  21393 ****        -3.0000 -19.0000  16.2500 Du        
  21394 ****        -3.0000 -19.0000  24.2500 Du        
  21395 ****        -3.0000 -19.0000  24.5000 Du        
  21396 ****        -3.0000 -19.0000  24.7500 Du        
  21397 ****        -3.0000 -19.0000  25.0000 Du        
  21398 ****        -3.0000 -18.7500  15.0000 Du        
  21399 ****        -3.0000 -18.7500  15.2500 Du        
  21400 ****        -3.0000 -18.7500  15.5000 Du        
  21401 ****        -3.0000 -18.7500  15.7500 Du        
  21402 ****        -3.0000 -18.7500  16.0000 Du        
  21403 ****        -3.0000 -18.7500  24.2500 Du        
  21404 ****        -3.0000 -18.7500  24.5000 Du        
  21405 ****        -3.0000 -18.7500  24.7500 Du        
  21406 ****        -3.0000 -18.5000  15.2500 Du        
  21407 ****        -3.0000 -18.5000  15.5000 Du        
  21408 ****        -3.0000 -18.5000  15.7500 Du        
  21409 ****        -3.0000 -18.5000  16.0000 Du        
  21410 ****        -3.0000 -18.5000  24.2500 Du        
  21411 ****        -3.0000 -18.5000  24.5000 Du        
  21412 ****        -3.0000 -18.5000  24.7500 Du        
  21413 ****        -3.0000 -18.2500  15.7500 Du        
  21414 ****        -3.0000 -18.2500  16.0000 Du        
  21415 ****        -3.0000 -18.2500  16.2500 Du        
  21416 ****        -3.0000 -18.2500  24.2500 Du        
  21417 ****        -3.0000 -18.2500  24.5000 Du        
  21418 ****        -3.0000 -18.2500  24.7500 Du        
  21419 ****        -3.0000 -18.0000  15.7500 Du        
  21420 ****        -3.0000 -18.0000  16.0000 Du        
  21421 ****        -3.0000 -18.0000  16.2500 Du        
  21422 ****        -3.0000 -18.0000  24.2500 Du        
  21423 ****        -3.0000 -18.0000  24.5000 Du        
  21424 ****        -3.0000 -17.7500  16.0000 Du        
  21425 ****        -3.0000 -17.7500  16.2500 Du        
  21426 ****        -3.0000 -17.7500  24.2500 Du        
  21427 ****        -3.0000 -17.5000  16.0000 Du        
  21428 ****        -3.0000 -17.5000  16.2500 Du        
  21429 ****        -3.0000 -17.2500  16.0000 Du        
  21430 ****        -3.0000 -17.2500  16.2500 Du        
  21431 ****        -3.0000 -17.2500  16.5000 Du        
  21432 ****        -3.0000 -17.0000  16.0000 Du        
  21433 ****        -3.0000 -17.0000  16.2500 Du        
  21434 ****        -3.0000 -17.0000  16.5000 Du        
  21435 ****        -3.0000 -17.0000  16.7500 Du        
  21436 ****        -3.0000 -17.0000  17.0000 Du        
  21437 ****        -3.0000 -16.7500  16.2500 Du        
  21438 ****        -3.0000 -16.7500  16.5000 Du        
  21439 ****        -3.0000 -16.7500  16.7500 Du        
  21440 ****        -3.0000 -16.7500  17.0000 Du        
  21441 ****        -3.0000 -16.7500  17.2500 Du        
  21442 ****        -3.0000 -16.5000  16.2500 Du        
  21443 ****        -3.0000 -16.5000  16.5000 Du        
  21444 ****        -3.0000 -16.5000  16.7500 Du        
  21445 ****        -3.0000 -16.5000  17.0000 Du        
  21446 ****        -3.0000 -16.5000  17.2500 Du        
  21447 ****        -3.0000 -16.5000  17.5000 Du        
  21448 ****        -3.0000 -16.5000  17.7500 Du        
  21449 ****        -3.0000 -16.2500  16.5000 Du        
  21450 ****        -3.0000 -16.2500  16.7500 Du        
  21451 ****        -3.0000 -16.2500  17.0000 Du        
  21452 ****        -3.0000 -16.2500  17.2500 Du        
  21453 ****        -3.0000 -16.2500  17.5000 Du        
  21454 ****        -3.0000 -16.2500  17.7500 Du        
  21455 ****        -3.0000 -16.2500  18.0000 Du        
  21456 ****        -3.0000 -16.2500  18.2500 Du        
  21457 ****        -3.0000 -16.0000  16.5000 Du        
  21458 ****        -3.0000 -16.0000  16.7500 Du        
  21459 ****        -3.0000 -16.0000  17.0000 Du        
  21460 ****        -3.0000 -16.0000  17.2500 Du        
  21461 ****        -3.0000 -16.0000  17.5000 Du        
  21462 ****        -3.0000 -16.0000  17.7500 Du        
  21463 ****        -3.0000 -16.0000  18.0000 Du        
  21464 ****        -3.0000 -16.0000  18.2500 Du        
  21465 ****        -3.0000 -16.0000  18.5000 Du        
  21466 ****        -3.0000 -16.0000  18.7500 Du        
  21467 ****        -3.0000 -15.7500  16.7500 Du        
  21468 ****        -3.0000 -15.7500  17.0000 Du        
  21469 ****        -3.0000 -15.7500  17.2500 Du        
  21470 ****        -3.0000 -15.7500  17.5000 Du        
  21471 ****        -3.0000 -15.7500  17.7500 Du        
  21472 ****        -3.0000 -15.7500  18.0000 Du        
  21473 ****        -3.0000 -15.7500  18.2500 Du        
  21474 ****        -3.0000 -15.7500  18.5000 Du        
  21475 ****        -3.0000 -15.7500  18.7500 Du        
  21476 ****        -3.0000 -15.7500  19.0000 Du        
  21477 ****        -3.0000 -15.5000  16.7500 Du        
  21478 ****        -3.0000 -15.5000  17.0000 Du        
  21479 ****        -3.0000 -15.5000  17.2500 Du        
  21480 ****        -3.0000 -15.5000  17.5000 Du        
  21481 ****        -3.0000 -15.5000  17.7500 Du        
  21482 ****        -3.0000 -15.5000  18.0000 Du        
  21483 ****        -3.0000 -15.5000  18.2500 Du        
  21484 ****        -3.0000 -15.5000  18.5000 Du        
  21485 ****        -3.0000 -15.5000  18.7500 Du        
  21486 ****        -3.0000 -15.5000  19.0000 Du        
  21487 ****        -3.0000 -15.5000  19.2500 Du        
  21488 ****        -3.0000 -15.2500  17.0000 Du        
  21489 ****        -3.0000 -15.2500  17.2500 Du        
  21490 ****        -3.0000 -15.2500  17.5000 Du        
  21491 ****        -3.0000 -15.2500  17.7500 Du        
  21492 ****        -3.0000 -15.2500  18.0000 Du        
  21493 ****        -3.0000 -15.2500  18.2500 Du        
  21494 ****        -3.0000 -15.2500  18.5000 Du        
  21495 ****        -3.0000 -15.2500  18.7500 Du        
  21496 ****        -3.0000 -15.2500  19.0000 Du        
  21497 ****        -3.0000 -15.2500  19.2500 Du        
  21498 ****        -3.0000 -15.2500  19.5000 Du        
  21499 ****        -3.0000 -15.0000  17.0000 Du        
  21500 ****        -3.0000 -15.0000  17.2500 Du        
  21501 ****        -3.0000 -15.0000  17.5000 Du        
  21502 ****        -3.0000 -15.0000  17.7500 Du        
  21503 ****        -3.0000 -15.0000  18.0000 Du        
  21504 ****        -3.0000 -15.0000  18.2500 Du        
  21505 ****        -3.0000 -15.0000  18.5000 Du        
  21506 ****        -3.0000 -15.0000  18.7500 Du        
  21507 ****        -3.0000 -15.0000  19.0000 Du        
  21508 ****        -3.0000 -15.0000  19.2500 Du        
  21509 ****        -3.0000 -15.0000  19.5000 Du        
  21510 ****        -3.0000 -14.7500  17.2500 Du        
  21511 ****        -3.0000 -14.7500  17.5000 Du        
  21512 ****        -3.0000 -14.7500  17.7500 Du        
  21513 ****        -3.0000 -14.7500  18.0000 Du        
  21514 ****        -3.0000 -14.7500  18.2500 Du        
  21515 ****        -3.0000 -14.7500  18.5000 Du        
  21516 ****        -3.0000 -14.7500  18.7500 Du        
  21517 ****        -3.0000 -14.7500  19.0000 Du        
  21518 ****        -3.0000 -14.7500  19.2500 Du        
  21519 ****        -3.0000 -14.7500  19.5000 Du        
  21520 ****        -3.0000 -14.5000  17.5000 Du        
  21521 ****        -3.0000 -14.5000  17.7500 Du        
  21522 ****        -3.0000 -14.5000  18.0000 Du        
  21523 ****        -3.0000 -14.5000  18.2500 Du        
  21524 ****        -3.0000 -14.5000  18.5000 Du        
  21525 ****        -3.0000 -14.5000  18.7500 Du        
  21526 ****        -3.0000 -14.5000  19.0000 Du        
  21527 ****        -3.0000 -14.5000  19.2500 Du        
  21528 ****        -3.0000 -14.2500  17.7500 Du        
  21529 ****        -3.0000 -14.2500  18.0000 Du        
  21530 ****        -3.0000 -14.2500  18.2500 Du        
  21531 ****        -3.0000 -14.2500  18.5000 Du        
  21532 ****        -3.0000 -14.2500  18.7500 Du        
  21533 ****        -3.0000 -14.2500  19.0000 Du        
  21534 ****        -3.0000 -14.0000  18.0000 Du        
  21535 ****        -3.0000 -14.0000  18.2500 Du        
  21536 ****        -3.0000  -8.5000  19.0000 Du        
  21537 ****        -3.0000  -8.5000  19.2500 Du        
  21538 ****        -3.0000  -8.2500  16.7500 Du        
  21539 ****        -3.0000  -8.2500  17.0000 Du        
  21540 ****        -3.0000  -8.2500  17.2500 Du        
  21541 ****        -3.0000  -8.2500  17.5000 Du        
  21542 ****        -3.0000  -8.2500  17.7500 Du        
  21543 ****        -3.0000  -8.2500  18.0000 Du        
  21544 ****        -3.0000  -8.2500  18.2500 Du        
  21545 ****        -3.0000  -8.2500  18.5000 Du        
  21546 ****        -3.0000  -8.2500  18.7500 Du        
  21547 ****        -3.0000  -8.2500  19.0000 Du        
  21548 ****        -3.0000  -8.2500  19.2500 Du        
  21549 ****        -3.0000  -8.2500  19.5000 Du        
  21550 ****        -3.0000  -8.0000  16.7500 Du        
  21551 ****        -3.0000  -8.0000  17.0000 Du        
  21552 ****        -3.0000  -8.0000  17.2500 Du        
  21553 ****        -3.0000  -8.0000  17.5000 Du        
  21554 ****        -3.0000  -8.0000  17.7500 Du        
  21555 ****        -3.0000  -8.0000  18.0000 Du        
  21556 ****        -3.0000  -8.0000  18.2500 Du        
  21557 ****        -3.0000  -8.0000  18.5000 Du        
  21558 ****        -3.0000  -8.0000  18.7500 Du        
  21559 ****        -3.0000  -8.0000  19.0000 Du        
  21560 ****        -3.0000  -8.0000  19.2500 Du        
  21561 ****        -3.0000  -8.0000  19.5000 Du        
  21562 ****        -3.0000  -8.0000  19.7500 Du        
  21563 ****        -3.0000  -7.7500  17.2500 Du        
  21564 ****        -3.0000  -7.7500  17.5000 Du        
  21565 ****        -3.0000  -7.7500  17.7500 Du        
  21566 ****        -3.0000  -7.7500  18.0000 Du        
  21567 ****        -3.0000  -7.7500  18.2500 Du        
  21568 ****        -3.0000  -7.7500  18.5000 Du        
  21569 ****        -3.0000  -7.7500  18.7500 Du        
  21570 ****        -3.0000  -7.7500  19.0000 Du        
  21571 ****        -3.0000  -7.7500  19.2500 Du        
  21572 ****        -3.0000  -7.7500  19.5000 Du        
  21573 ****        -3.0000  -7.5000  17.7500 Du        
  21574 ****        -3.0000  -7.5000  18.0000 Du        
  21575 ****        -3.0000  -7.5000  18.2500 Du        
  21576 ****        -3.0000  -7.5000  18.5000 Du        
  21577 ****        -3.0000  -7.5000  18.7500 Du        
  21578 ****        -3.0000  -7.5000  19.0000 Du        
  21579 ****        -3.0000  -7.5000  19.2500 Du        
  21580 ****        -3.0000  -7.2500  18.0000 Du        
  21581 ****        -3.0000  -7.2500  18.2500 Du        
  21582 ****        -3.0000  -7.2500  18.5000 Du        
  21583 ****        -3.0000  -7.2500  18.7500 Du        
  21584 ****        -3.0000  -7.2500  19.0000 Du        
  21585 ****        -3.0000  -7.0000  18.2500 Du        
  21586 ****        -3.0000  -7.0000  18.5000 Du        
  21587 ****        -3.0000  -7.0000  18.7500 Du        
  21588 ****        -3.0000  -3.2500  18.2500 Du        
  21589 ****        -3.0000  -3.2500  18.5000 Du        
  21590 ****        -3.0000  -3.0000  18.2500 Du        
  21591 ****        -3.0000  -3.0000  18.5000 Du        
  21592 ****        -3.0000  -3.0000  18.7500 Du        
  21593 ****        -2.7500 -19.7500  13.7500 Du        
  21594 ****        -2.7500 -19.5000  13.5000 Du        
  21595 ****        -2.7500 -19.5000  13.7500 Du        
  21596 ****        -2.7500 -19.5000  14.0000 Du        
  21597 ****        -2.7500 -19.5000  14.2500 Du        
  21598 ****        -2.7500 -19.2500  13.5000 Du        
  21599 ****        -2.7500 -19.2500  13.7500 Du        
  21600 ****        -2.7500 -19.2500  14.0000 Du        
  21601 ****        -2.7500 -19.2500  14.2500 Du        
  21602 ****        -2.7500 -19.2500  14.5000 Du        
  21603 ****        -2.7500 -19.2500  14.7500 Du        
  21604 ****        -2.7500 -19.2500  15.0000 Du        
  21605 ****        -2.7500 -19.2500  15.2500 Du        
  21606 ****        -2.7500 -19.0000  13.7500 Du        
  21607 ****        -2.7500 -19.0000  14.0000 Du        
  21608 ****        -2.7500 -19.0000  14.2500 Du        
  21609 ****        -2.7500 -19.0000  14.5000 Du        
  21610 ****        -2.7500 -19.0000  14.7500 Du        
  21611 ****        -2.7500 -19.0000  15.0000 Du        
  21612 ****        -2.7500 -19.0000  15.2500 Du        
  21613 ****        -2.7500 -18.7500  14.7500 Du        
  21614 ****        -2.7500 -18.7500  15.0000 Du        
  21615 ****        -2.7500 -18.7500  15.2500 Du        
  21616 ****        -2.7500 -18.7500  15.5000 Du        
  21617 ****        -2.7500 -18.7500  15.7500 Du        
  21618 ****        -2.7500 -18.5000  15.0000 Du        
  21619 ****        -2.7500 -18.5000  15.2500 Du        
  21620 ****        -2.7500 -18.5000  15.5000 Du        
  21621 ****        -2.7500 -18.5000  15.7500 Du        
  21622 ****        -2.7500 -18.2500  15.2500 Du        
  21623 ****        -2.7500 -18.2500  15.5000 Du        
  21624 ****        -2.7500 -18.2500  15.7500 Du        
  21625 ****        -2.7500 -18.2500  16.0000 Du        
  21626 ****        -2.7500 -18.0000  15.5000 Du        
  21627 ****        -2.7500 -18.0000  15.7500 Du        
  21628 ****        -2.7500 -18.0000  16.0000 Du        
  21629 ****        -2.7500 -17.7500  15.7500 Du        
  21630 ****        -2.7500 -17.7500  16.0000 Du        
  21631 ****        -2.7500 -17.5000  15.7500 Du        
  21632 ****        -2.7500 -17.5000  16.0000 Du        
  21633 ****        -2.7500 -17.5000  16.2500 Du        
  21634 ****        -2.7500 -17.2500  15.7500 Du        
  21635 ****        -2.7500 -17.2500  16.0000 Du        
  21636 ****        -2.7500 -17.2500  16.2500 Du        
  21637 ****        -2.7500 -17.0000  16.0000 Du        
  21638 ****        -2.7500 -17.0000  16.2500 Du        
  21639 ****        -2.7500 -17.0000  16.5000 Du        
  21640 ****        -2.7500 -17.0000  16.7500 Du        
  21641 ****        -2.7500 -16.7500  16.0000 Du        
  21642 ****        -2.7500 -16.7500  16.2500 Du        
  21643 ****        -2.7500 -16.7500  16.5000 Du        
  21644 ****        -2.7500 -16.7500  16.7500 Du        
  21645 ****        -2.7500 -16.7500  17.0000 Du        
  21646 ****        -2.7500 -16.5000  16.0000 Du        
  21647 ****        -2.7500 -16.5000  16.2500 Du        
  21648 ****        -2.7500 -16.5000  16.5000 Du        
  21649 ****        -2.7500 -16.5000  16.7500 Du        
  21650 ****        -2.7500 -16.5000  17.0000 Du        
  21651 ****        -2.7500 -16.5000  17.2500 Du        
  21652 ****        -2.7500 -16.5000  17.5000 Du        
  21653 ****        -2.7500 -16.2500  16.0000 Du        
  21654 ****        -2.7500 -16.2500  16.2500 Du        
  21655 ****        -2.7500 -16.2500  16.5000 Du        
  21656 ****        -2.7500 -16.2500  16.7500 Du        
  21657 ****        -2.7500 -16.2500  17.0000 Du        
  21658 ****        -2.7500 -16.2500  17.2500 Du        
  21659 ****        -2.7500 -16.2500  17.5000 Du        
  21660 ****        -2.7500 -16.2500  17.7500 Du        
  21661 ****        -2.7500 -16.2500  18.0000 Du        
  21662 ****        -2.7500 -16.0000  16.2500 Du        
  21663 ****        -2.7500 -16.0000  16.5000 Du        
  21664 ****        -2.7500 -16.0000  16.7500 Du        
  21665 ****        -2.7500 -16.0000  17.0000 Du        
  21666 ****        -2.7500 -16.0000  17.2500 Du        
  21667 ****        -2.7500 -16.0000  17.5000 Du        
  21668 ****        -2.7500 -16.0000  17.7500 Du        
  21669 ****        -2.7500 -16.0000  18.0000 Du        
  21670 ****        -2.7500 -16.0000  18.2500 Du        
  21671 ****        -2.7500 -16.0000  18.5000 Du        
  21672 ****        -2.7500 -15.7500  16.5000 Du        
  21673 ****        -2.7500 -15.7500  16.7500 Du        
  21674 ****        -2.7500 -15.7500  17.0000 Du        
  21675 ****        -2.7500 -15.7500  17.2500 Du        
  21676 ****        -2.7500 -15.7500  17.5000 Du        
  21677 ****        -2.7500 -15.7500  17.7500 Du        
  21678 ****        -2.7500 -15.7500  18.0000 Du        
  21679 ****        -2.7500 -15.7500  18.2500 Du        
  21680 ****        -2.7500 -15.7500  18.5000 Du        
  21681 ****        -2.7500 -15.7500  18.7500 Du        
  21682 ****        -2.7500 -15.7500  19.0000 Du        
  21683 ****        -2.7500 -15.5000  16.7500 Du        
  21684 ****        -2.7500 -15.5000  17.0000 Du        
  21685 ****        -2.7500 -15.5000  17.2500 Du        
  21686 ****        -2.7500 -15.5000  17.5000 Du        
  21687 ****        -2.7500 -15.5000  17.7500 Du        
  21688 ****        -2.7500 -15.5000  18.0000 Du        
  21689 ****        -2.7500 -15.5000  18.2500 Du        
  21690 ****        -2.7500 -15.5000  18.5000 Du        
  21691 ****        -2.7500 -15.5000  18.7500 Du        
  21692 ****        -2.7500 -15.5000  19.0000 Du        
  21693 ****        -2.7500 -15.5000  19.2500 Du        
  21694 ****        -2.7500 -15.2500  16.7500 Du        
  21695 ****        -2.7500 -15.2500  17.0000 Du        
  21696 ****        -2.7500 -15.2500  17.2500 Du        
  21697 ****        -2.7500 -15.2500  17.5000 Du        
  21698 ****        -2.7500 -15.2500  17.7500 Du        
  21699 ****        -2.7500 -15.2500  18.0000 Du        
  21700 ****        -2.7500 -15.2500  18.2500 Du        
  21701 ****        -2.7500 -15.2500  18.5000 Du        
  21702 ****        -2.7500 -15.2500  18.7500 Du        
  21703 ****        -2.7500 -15.2500  19.0000 Du        
  21704 ****        -2.7500 -15.2500  19.2500 Du        
  21705 ****        -2.7500 -15.0000  17.0000 Du        
  21706 ****        -2.7500 -15.0000  17.2500 Du        
  21707 ****        -2.7500 -15.0000  17.5000 Du        
  21708 ****        -2.7500 -15.0000  17.7500 Du        
  21709 ****        -2.7500 -15.0000  18.0000 Du        
  21710 ****        -2.7500 -15.0000  18.2500 Du        
  21711 ****        -2.7500 -15.0000  18.5000 Du        
  21712 ****        -2.7500 -15.0000  18.7500 Du        
  21713 ****        -2.7500 -15.0000  19.0000 Du        
  21714 ****        -2.7500 -15.0000  19.2500 Du        
  21715 ****        -2.7500 -14.7500  17.2500 Du        
  21716 ****        -2.7500 -14.7500  17.5000 Du        
  21717 ****        -2.7500 -14.7500  17.7500 Du        
  21718 ****        -2.7500 -14.7500  18.0000 Du        
  21719 ****        -2.7500 -14.7500  18.2500 Du        
  21720 ****        -2.7500 -14.7500  18.5000 Du        
  21721 ****        -2.7500 -14.7500  18.7500 Du        
  21722 ****        -2.7500 -14.7500  19.0000 Du        
  21723 ****        -2.7500 -14.7500  19.2500 Du        
  21724 ****        -2.7500 -14.5000  17.5000 Du        
  21725 ****        -2.7500 -14.5000  17.7500 Du        
  21726 ****        -2.7500 -14.5000  18.0000 Du        
  21727 ****        -2.7500 -14.5000  18.2500 Du        
  21728 ****        -2.7500 -14.5000  18.5000 Du        
  21729 ****        -2.7500 -14.5000  18.7500 Du        
  21730 ****        -2.7500 -14.5000  19.0000 Du        
  21731 ****        -2.7500 -14.2500  17.7500 Du        
  21732 ****        -2.7500 -14.2500  18.0000 Du        
  21733 ****        -2.7500 -14.2500  18.2500 Du        
  21734 ****        -2.7500 -14.2500  18.5000 Du        
  21735 ****        -2.7500 -14.2500  18.7500 Du        
  21736 ****        -2.7500 -14.0000  18.0000 Du        
  21737 ****        -2.7500 -14.0000  18.2500 Du        
  21738 ****        -2.7500  -8.7500  17.0000 Du        
  21739 ****        -2.7500  -8.7500  17.2500 Du        
  21740 ****        -2.7500  -8.7500  17.5000 Du        
  21741 ****        -2.7500  -8.7500  17.7500 Du        
  21742 ****        -2.7500  -8.7500  18.0000 Du        
  21743 ****        -2.7500  -8.7500  18.2500 Du        
  21744 ****        -2.7500  -8.7500  18.5000 Du        
  21745 ****        -2.7500  -8.7500  18.7500 Du        
  21746 ****        -2.7500  -8.7500  19.0000 Du        
  21747 ****        -2.7500  -8.7500  19.2500 Du        
  21748 ****        -2.7500  -8.5000  16.5000 Du        
  21749 ****        -2.7500  -8.5000  16.7500 Du        
  21750 ****        -2.7500  -8.5000  17.0000 Du        
  21751 ****        -2.7500  -8.5000  17.2500 Du        
  21752 ****        -2.7500  -8.5000  17.5000 Du        
  21753 ****        -2.7500  -8.5000  17.7500 Du        
  21754 ****        -2.7500  -8.5000  18.0000 Du        
  21755 ****        -2.7500  -8.5000  18.2500 Du        
  21756 ****        -2.7500  -8.5000  18.5000 Du        
  21757 ****        -2.7500  -8.5000  18.7500 Du        
  21758 ****        -2.7500  -8.5000  19.0000 Du        
  21759 ****        -2.7500  -8.5000  19.2500 Du        
  21760 ****        -2.7500  -8.2500  16.2500 Du        
  21761 ****        -2.7500  -8.2500  16.5000 Du        
  21762 ****        -2.7500  -8.2500  16.7500 Du        
  21763 ****        -2.7500  -8.2500  17.0000 Du        
  21764 ****        -2.7500  -8.2500  17.2500 Du        
  21765 ****        -2.7500  -8.2500  17.5000 Du        
  21766 ****        -2.7500  -8.2500  17.7500 Du        
  21767 ****        -2.7500  -8.2500  18.0000 Du        
  21768 ****        -2.7500  -8.2500  18.2500 Du        
  21769 ****        -2.7500  -8.2500  18.5000 Du        
  21770 ****        -2.7500  -8.2500  18.7500 Du        
  21771 ****        -2.7500  -8.2500  19.0000 Du        
  21772 ****        -2.7500  -8.2500  19.2500 Du        
  21773 ****        -2.7500  -8.0000  16.2500 Du        
  21774 ****        -2.7500  -8.0000  16.5000 Du        
  21775 ****        -2.7500  -8.0000  16.7500 Du        
  21776 ****        -2.7500  -8.0000  17.0000 Du        
  21777 ****        -2.7500  -8.0000  17.2500 Du        
  21778 ****        -2.7500  -8.0000  17.5000 Du        
  21779 ****        -2.7500  -8.0000  17.7500 Du        
  21780 ****        -2.7500  -8.0000  18.0000 Du        
  21781 ****        -2.7500  -8.0000  18.2500 Du        
  21782 ****        -2.7500  -8.0000  18.5000 Du        
  21783 ****        -2.7500  -8.0000  18.7500 Du        
  21784 ****        -2.7500  -8.0000  19.0000 Du        
  21785 ****        -2.7500  -8.0000  19.2500 Du        
  21786 ****        -2.7500  -7.7500  16.7500 Du        
  21787 ****        -2.7500  -7.7500  17.0000 Du        
  21788 ****        -2.7500  -7.7500  17.2500 Du        
  21789 ****        -2.7500  -7.7500  17.5000 Du        
  21790 ****        -2.7500  -7.7500  17.7500 Du        
  21791 ****        -2.7500  -7.7500  18.0000 Du        
  21792 ****        -2.7500  -7.7500  18.2500 Du        
  21793 ****        -2.7500  -7.7500  18.5000 Du        
  21794 ****        -2.7500  -7.7500  18.7500 Du        
  21795 ****        -2.7500  -7.7500  19.0000 Du        
  21796 ****        -2.7500  -7.7500  19.2500 Du        
  21797 ****        -2.7500  -7.5000  17.5000 Du        
  21798 ****        -2.7500  -7.5000  17.7500 Du        
  21799 ****        -2.7500  -7.5000  18.0000 Du        
  21800 ****        -2.7500  -7.5000  18.2500 Du        
  21801 ****        -2.7500  -7.5000  18.5000 Du        
  21802 ****        -2.7500  -7.5000  18.7500 Du        
  21803 ****        -2.7500  -7.2500  17.7500 Du        
  21804 ****        -2.7500  -7.2500  18.0000 Du        
  21805 ****        -2.7500  -7.2500  18.2500 Du        
  21806 ****        -2.7500  -7.2500  18.5000 Du        
  21807 ****        -2.5000 -19.2500  13.7500 Du        
  21808 ****        -2.5000 -19.0000  13.7500 Du        
  21809 ****        -2.5000 -19.0000  14.0000 Du        
  21810 ****        -2.5000 -18.7500  14.0000 Du        
  21811 ****        -2.5000 -18.7500  14.2500 Du        
  21812 ****        -2.5000 -18.5000  14.7500 Du        
  21813 ****        -2.5000 -18.5000  15.0000 Du        
  21814 ****        -2.5000 -18.5000  15.2500 Du        
  21815 ****        -2.5000 -18.2500  15.0000 Du        
  21816 ****        -2.5000 -18.2500  15.2500 Du        
  21817 ****        -2.5000 -18.2500  15.5000 Du        
  21818 ****        -2.5000 -18.2500  15.7500 Du        
  21819 ****        -2.5000 -18.0000  15.0000 Du        
  21820 ****        -2.5000 -18.0000  15.2500 Du        
  21821 ****        -2.5000 -18.0000  15.5000 Du        
  21822 ****        -2.5000 -18.0000  15.7500 Du        
  21823 ****        -2.5000 -18.0000  16.0000 Du        
  21824 ****        -2.5000 -17.7500  15.2500 Du        
  21825 ****        -2.5000 -17.7500  15.5000 Du        
  21826 ****        -2.5000 -17.7500  15.7500 Du        
  21827 ****        -2.5000 -17.7500  16.0000 Du        
  21828 ****        -2.5000 -17.5000  15.5000 Du        
  21829 ****        -2.5000 -17.5000  15.7500 Du        
  21830 ****        -2.5000 -17.5000  16.0000 Du        
  21831 ****        -2.5000 -17.2500  15.5000 Du        
  21832 ****        -2.5000 -17.2500  15.7500 Du        
  21833 ****        -2.5000 -17.2500  16.0000 Du        
  21834 ****        -2.5000 -17.2500  16.2500 Du        
  21835 ****        -2.5000 -17.0000  15.5000 Du        
  21836 ****        -2.5000 -17.0000  15.7500 Du        
  21837 ****        -2.5000 -17.0000  16.0000 Du        
  21838 ****        -2.5000 -17.0000  16.2500 Du        
  21839 ****        -2.5000 -17.0000  16.5000 Du        
  21840 ****        -2.5000 -16.7500  15.5000 Du        
  21841 ****        -2.5000 -16.7500  15.7500 Du        
  21842 ****        -2.5000 -16.7500  16.0000 Du        
  21843 ****        -2.5000 -16.7500  16.2500 Du        
  21844 ****        -2.5000 -16.7500  16.5000 Du        
  21845 ****        -2.5000 -16.7500  16.7500 Du        
  21846 ****        -2.5000 -16.5000  15.7500 Du        
  21847 ****        -2.5000 -16.5000  16.0000 Du        
  21848 ****        -2.5000 -16.5000  16.2500 Du        
  21849 ****        -2.5000 -16.5000  16.5000 Du        
  21850 ****        -2.5000 -16.5000  16.7500 Du        
  21851 ****        -2.5000 -16.5000  17.0000 Du        
  21852 ****        -2.5000 -16.2500  15.7500 Du        
  21853 ****        -2.5000 -16.2500  16.0000 Du        
  21854 ****        -2.5000 -16.2500  16.2500 Du        
  21855 ****        -2.5000 -16.2500  16.5000 Du        
  21856 ****        -2.5000 -16.2500  16.7500 Du        
  21857 ****        -2.5000 -16.2500  17.0000 Du        
  21858 ****        -2.5000 -16.2500  17.2500 Du        
  21859 ****        -2.5000 -16.2500  17.5000 Du        
  21860 ****        -2.5000 -16.2500  17.7500 Du        
  21861 ****        -2.5000 -16.0000  15.7500 Du        
  21862 ****        -2.5000 -16.0000  16.0000 Du        
  21863 ****        -2.5000 -16.0000  16.2500 Du        
  21864 ****        -2.5000 -16.0000  16.5000 Du        
  21865 ****        -2.5000 -16.0000  16.7500 Du        
  21866 ****        -2.5000 -16.0000  17.0000 Du        
  21867 ****        -2.5000 -16.0000  17.2500 Du        
  21868 ****        -2.5000 -16.0000  17.5000 Du        
  21869 ****        -2.5000 -16.0000  17.7500 Du        
  21870 ****        -2.5000 -16.0000  18.0000 Du        
  21871 ****        -2.5000 -16.0000  18.2500 Du        
  21872 ****        -2.5000 -15.7500  16.0000 Du        
  21873 ****        -2.5000 -15.7500  16.2500 Du        
  21874 ****        -2.5000 -15.7500  16.5000 Du        
  21875 ****        -2.5000 -15.7500  16.7500 Du        
  21876 ****        -2.5000 -15.7500  17.0000 Du        
  21877 ****        -2.5000 -15.7500  17.2500 Du        
  21878 ****        -2.5000 -15.7500  17.5000 Du        
  21879 ****        -2.5000 -15.7500  17.7500 Du        
  21880 ****        -2.5000 -15.7500  18.0000 Du        
  21881 ****        -2.5000 -15.7500  18.2500 Du        
  21882 ****        -2.5000 -15.7500  18.5000 Du        
  21883 ****        -2.5000 -15.7500  18.7500 Du        
  21884 ****        -2.5000 -15.5000  16.5000 Du        
  21885 ****        -2.5000 -15.5000  16.7500 Du        
  21886 ****        -2.5000 -15.5000  17.0000 Du        
  21887 ****        -2.5000 -15.5000  17.2500 Du        
  21888 ****        -2.5000 -15.5000  17.5000 Du        
  21889 ****        -2.5000 -15.5000  17.7500 Du        
  21890 ****        -2.5000 -15.5000  18.0000 Du        
  21891 ****        -2.5000 -15.5000  18.2500 Du        
  21892 ****        -2.5000 -15.5000  18.5000 Du        
  21893 ****        -2.5000 -15.5000  18.7500 Du        
  21894 ****        -2.5000 -15.5000  19.0000 Du        
  21895 ****        -2.5000 -15.2500  16.7500 Du        
  21896 ****        -2.5000 -15.2500  17.0000 Du        
  21897 ****        -2.5000 -15.2500  17.2500 Du        
  21898 ****        -2.5000 -15.2500  17.5000 Du        
  21899 ****        -2.5000 -15.2500  17.7500 Du        
  21900 ****        -2.5000 -15.2500  18.0000 Du        
  21901 ****        -2.5000 -15.2500  18.2500 Du        
  21902 ****        -2.5000 -15.2500  18.5000 Du        
  21903 ****        -2.5000 -15.2500  18.7500 Du        
  21904 ****        -2.5000 -15.2500  19.0000 Du        
  21905 ****        -2.5000 -15.2500  19.2500 Du        
  21906 ****        -2.5000 -15.0000  17.0000 Du        
  21907 ****        -2.5000 -15.0000  17.2500 Du        
  21908 ****        -2.5000 -15.0000  17.5000 Du        
  21909 ****        -2.5000 -15.0000  17.7500 Du        
  21910 ****        -2.5000 -15.0000  18.0000 Du        
  21911 ****        -2.5000 -15.0000  18.2500 Du        
  21912 ****        -2.5000 -15.0000  18.5000 Du        
  21913 ****        -2.5000 -15.0000  18.7500 Du        
  21914 ****        -2.5000 -15.0000  19.0000 Du        
  21915 ****        -2.5000 -14.7500  17.5000 Du        
  21916 ****        -2.5000 -14.7500  17.7500 Du        
  21917 ****        -2.5000 -14.7500  18.0000 Du        
  21918 ****        -2.5000 -14.7500  18.2500 Du        
  21919 ****        -2.5000 -14.7500  18.5000 Du        
  21920 ****        -2.5000 -14.7500  18.7500 Du        
  21921 ****        -2.5000 -14.7500  19.0000 Du        
  21922 ****        -2.5000 -14.5000  17.7500 Du        
  21923 ****        -2.5000 -14.5000  18.0000 Du        
  21924 ****        -2.5000 -14.5000  18.2500 Du        
  21925 ****        -2.5000 -14.5000  18.5000 Du        
  21926 ****        -2.5000 -14.5000  18.7500 Du        
  21927 ****        -2.5000 -14.2500  17.7500 Du        
  21928 ****        -2.5000 -14.2500  18.0000 Du        
  21929 ****        -2.5000 -14.2500  18.2500 Du        
  21930 ****        -2.5000  -9.2500  18.0000 Du        
  21931 ****        -2.5000  -9.2500  18.2500 Du        
  21932 ****        -2.5000  -9.2500  18.5000 Du        
  21933 ****        -2.5000  -9.2500  18.7500 Du        
  21934 ****        -2.5000  -9.0000  17.0000 Du        
  21935 ****        -2.5000  -9.0000  17.2500 Du        
  21936 ****        -2.5000  -9.0000  17.5000 Du        
  21937 ****        -2.5000  -9.0000  17.7500 Du        
  21938 ****        -2.5000  -9.0000  18.0000 Du        
  21939 ****        -2.5000  -9.0000  18.2500 Du        
  21940 ****        -2.5000  -9.0000  18.5000 Du        
  21941 ****        -2.5000  -9.0000  18.7500 Du        
  21942 ****        -2.5000  -9.0000  19.0000 Du        
  21943 ****        -2.5000  -8.7500  16.5000 Du        
  21944 ****        -2.5000  -8.7500  16.7500 Du        
  21945 ****        -2.5000  -8.7500  17.0000 Du        
  21946 ****        -2.5000  -8.7500  17.2500 Du        
  21947 ****        -2.5000  -8.7500  17.5000 Du        
  21948 ****        -2.5000  -8.7500  17.7500 Du        
  21949 ****        -2.5000  -8.7500  18.0000 Du        
  21950 ****        -2.5000  -8.7500  18.2500 Du        
  21951 ****        -2.5000  -8.7500  18.5000 Du        
  21952 ****        -2.5000  -8.7500  18.7500 Du        
  21953 ****        -2.5000  -8.7500  19.0000 Du        
  21954 ****        -2.5000  -8.5000  16.0000 Du        
  21955 ****        -2.5000  -8.5000  16.2500 Du        
  21956 ****        -2.5000  -8.5000  16.5000 Du        
  21957 ****        -2.5000  -8.5000  16.7500 Du        
  21958 ****        -2.5000  -8.5000  17.0000 Du        
  21959 ****        -2.5000  -8.5000  17.2500 Du        
  21960 ****        -2.5000  -8.5000  17.5000 Du        
  21961 ****        -2.5000  -8.5000  17.7500 Du        
  21962 ****        -2.5000  -8.5000  18.0000 Du        
  21963 ****        -2.5000  -8.5000  18.2500 Du        
  21964 ****        -2.5000  -8.5000  18.5000 Du        
  21965 ****        -2.5000  -8.5000  18.7500 Du        
  21966 ****        -2.5000  -8.5000  19.0000 Du        
  21967 ****        -2.5000  -8.5000  19.2500 Du        
  21968 ****        -2.5000  -8.2500  16.0000 Du        
  21969 ****        -2.5000  -8.2500  16.2500 Du        
  21970 ****        -2.5000  -8.2500  16.5000 Du        
  21971 ****        -2.5000  -8.2500  16.7500 Du        
  21972 ****        -2.5000  -8.2500  17.0000 Du        
  21973 ****        -2.5000  -8.2500  17.2500 Du        
  21974 ****        -2.5000  -8.2500  17.5000 Du        
  21975 ****        -2.5000  -8.2500  17.7500 Du        
  21976 ****        -2.5000  -8.2500  18.0000 Du        
  21977 ****        -2.5000  -8.2500  18.2500 Du        
  21978 ****        -2.5000  -8.2500  18.5000 Du        
  21979 ****        -2.5000  -8.2500  18.7500 Du        
  21980 ****        -2.5000  -8.2500  19.0000 Du        
  21981 ****        -2.5000  -8.0000  16.0000 Du        
  21982 ****        -2.5000  -8.0000  16.2500 Du        
  21983 ****        -2.5000  -8.0000  16.5000 Du        
  21984 ****        -2.5000  -8.0000  16.7500 Du        
  21985 ****        -2.5000  -8.0000  17.0000 Du        
  21986 ****        -2.5000  -8.0000  17.2500 Du        
  21987 ****        -2.5000  -8.0000  17.5000 Du        
  21988 ****        -2.5000  -8.0000  17.7500 Du        
  21989 ****        -2.5000  -8.0000  18.0000 Du        
  21990 ****        -2.5000  -8.0000  18.2500 Du        
  21991 ****        -2.5000  -8.0000  18.5000 Du        
  21992 ****        -2.5000  -8.0000  18.7500 Du        
  21993 ****        -2.5000  -8.0000  19.0000 Du        
  21994 ****        -2.5000  -7.7500  16.5000 Du        
  21995 ****        -2.5000  -7.7500  16.7500 Du        
  21996 ****        -2.5000  -7.7500  17.0000 Du        
  21997 ****        -2.5000  -7.7500  17.2500 Du        
  21998 ****        -2.5000  -7.7500  17.5000 Du        
  21999 ****        -2.5000  -7.7500  17.7500 Du        
  22000 ****        -2.5000  -7.7500  18.0000 Du        
  22001 ****        -2.5000  -7.7500  18.2500 Du        
  22002 ****        -2.5000  -7.7500  18.5000 Du        
  22003 ****        -2.5000  -7.7500  18.7500 Du        
  22004 ****        -2.5000  -7.5000  17.0000 Du        
  22005 ****        -2.5000  -7.5000  17.2500 Du        
  22006 ****        -2.5000  -7.5000  17.5000 Du        
  22007 ****        -2.5000  -7.5000  17.7500 Du        
  22008 ****        -2.5000  -7.5000  18.0000 Du        
  22009 ****        -2.5000  -7.5000  18.2500 Du        
  22010 ****        -2.5000  -7.5000  18.5000 Du        
  22011 ****        -2.5000  -7.2500  17.7500 Du        
  22012 ****        -2.5000  -7.2500  18.0000 Du        
  22013 ****        -2.2500 -18.2500  14.7500 Du        
  22014 ****        -2.2500 -18.2500  15.0000 Du        
  22015 ****        -2.2500 -18.2500  15.2500 Du        
  22016 ****        -2.2500 -18.0000  14.7500 Du        
  22017 ****        -2.2500 -18.0000  15.0000 Du        
  22018 ****        -2.2500 -18.0000  15.2500 Du        
  22019 ****        -2.2500 -18.0000  15.5000 Du        
  22020 ****        -2.2500 -18.0000  15.7500 Du        
  22021 ****        -2.2500 -17.7500  14.7500 Du        
  22022 ****        -2.2500 -17.7500  15.0000 Du        
  22023 ****        -2.2500 -17.7500  15.2500 Du        
  22024 ****        -2.2500 -17.7500  15.5000 Du        
  22025 ****        -2.2500 -17.7500  15.7500 Du        
  22026 ****        -2.2500 -17.5000  15.0000 Du        
  22027 ****        -2.2500 -17.5000  15.2500 Du        
  22028 ****        -2.2500 -17.5000  15.5000 Du        
  22029 ****        -2.2500 -17.5000  15.7500 Du        
  22030 ****        -2.2500 -17.5000  16.0000 Du        
  22031 ****        -2.2500 -17.2500  15.0000 Du        
  22032 ****        -2.2500 -17.2500  15.2500 Du        
  22033 ****        -2.2500 -17.2500  15.5000 Du        
  22034 ****        -2.2500 -17.2500  15.7500 Du        
  22035 ****        -2.2500 -17.2500  16.0000 Du        
  22036 ****        -2.2500 -17.2500  16.2500 Du        
  22037 ****        -2.2500 -17.0000  15.2500 Du        
  22038 ****        -2.2500 -17.0000  15.5000 Du        
  22039 ****        -2.2500 -17.0000  15.7500 Du        
  22040 ****        -2.2500 -17.0000  16.0000 Du        
  22041 ****        -2.2500 -17.0000  16.2500 Du        
  22042 ****        -2.2500 -17.0000  16.5000 Du        
  22043 ****        -2.2500 -16.7500  15.2500 Du        
  22044 ****        -2.2500 -16.7500  15.5000 Du        
  22045 ****        -2.2500 -16.7500  15.7500 Du        
  22046 ****        -2.2500 -16.7500  16.0000 Du        
  22047 ****        -2.2500 -16.7500  16.2500 Du        
  22048 ****        -2.2500 -16.7500  16.5000 Du        
  22049 ****        -2.2500 -16.7500  16.7500 Du        
  22050 ****        -2.2500 -16.5000  15.2500 Du        
  22051 ****        -2.2500 -16.5000  15.5000 Du        
  22052 ****        -2.2500 -16.5000  15.7500 Du        
  22053 ****        -2.2500 -16.5000  16.0000 Du        
  22054 ****        -2.2500 -16.5000  16.2500 Du        
  22055 ****        -2.2500 -16.5000  16.5000 Du        
  22056 ****        -2.2500 -16.5000  16.7500 Du        
  22057 ****        -2.2500 -16.5000  17.0000 Du        
  22058 ****        -2.2500 -16.2500  15.2500 Du        
  22059 ****        -2.2500 -16.2500  15.5000 Du        
  22060 ****        -2.2500 -16.2500  15.7500 Du        
  22061 ****        -2.2500 -16.2500  16.0000 Du        
  22062 ****        -2.2500 -16.2500  16.2500 Du        
  22063 ****        -2.2500 -16.2500  16.5000 Du        
  22064 ****        -2.2500 -16.2500  16.7500 Du        
  22065 ****        -2.2500 -16.2500  17.0000 Du        
  22066 ****        -2.2500 -16.2500  17.2500 Du        
  22067 ****        -2.2500 -16.2500  17.5000 Du        
  22068 ****        -2.2500 -16.0000  15.2500 Du        
  22069 ****        -2.2500 -16.0000  15.5000 Du        
  22070 ****        -2.2500 -16.0000  15.7500 Du        
  22071 ****        -2.2500 -16.0000  16.0000 Du        
  22072 ****        -2.2500 -16.0000  16.2500 Du        
  22073 ****        -2.2500 -16.0000  16.5000 Du        
  22074 ****        -2.2500 -16.0000  16.7500 Du        
  22075 ****        -2.2500 -16.0000  17.0000 Du        
  22076 ****        -2.2500 -16.0000  17.2500 Du        
  22077 ****        -2.2500 -16.0000  17.5000 Du        
  22078 ****        -2.2500 -16.0000  17.7500 Du        
  22079 ****        -2.2500 -16.0000  18.0000 Du        
  22080 ****        -2.2500 -16.0000  18.2500 Du        
  22081 ****        -2.2500 -15.7500  15.7500 Du        
  22082 ****        -2.2500 -15.7500  16.0000 Du        
  22083 ****        -2.2500 -15.7500  16.2500 Du        
  22084 ****        -2.2500 -15.7500  16.5000 Du        
  22085 ****        -2.2500 -15.7500  16.7500 Du        
  22086 ****        -2.2500 -15.7500  17.0000 Du        
  22087 ****        -2.2500 -15.7500  17.2500 Du        
  22088 ****        -2.2500 -15.7500  17.5000 Du        
  22089 ****        -2.2500 -15.7500  17.7500 Du        
  22090 ****        -2.2500 -15.7500  18.0000 Du        
  22091 ****        -2.2500 -15.7500  18.2500 Du        
  22092 ****        -2.2500 -15.7500  18.5000 Du        
  22093 ****        -2.2500 -15.5000  16.2500 Du        
  22094 ****        -2.2500 -15.5000  16.5000 Du        
  22095 ****        -2.2500 -15.5000  16.7500 Du        
  22096 ****        -2.2500 -15.5000  17.0000 Du        
  22097 ****        -2.2500 -15.5000  17.2500 Du        
  22098 ****        -2.2500 -15.5000  17.5000 Du        
  22099 ****        -2.2500 -15.5000  17.7500 Du        
  22100 ****        -2.2500 -15.5000  18.0000 Du        
  22101 ****        -2.2500 -15.5000  18.2500 Du        
  22102 ****        -2.2500 -15.5000  18.5000 Du        
  22103 ****        -2.2500 -15.5000  18.7500 Du        
  22104 ****        -2.2500 -15.5000  19.0000 Du        
  22105 ****        -2.2500 -15.2500  17.0000 Du        
  22106 ****        -2.2500 -15.2500  17.2500 Du        
  22107 ****        -2.2500 -15.2500  17.5000 Du        
  22108 ****        -2.2500 -15.2500  17.7500 Du        
  22109 ****        -2.2500 -15.2500  18.0000 Du        
  22110 ****        -2.2500 -15.2500  18.2500 Du        
  22111 ****        -2.2500 -15.2500  18.5000 Du        
  22112 ****        -2.2500 -15.2500  18.7500 Du        
  22113 ****        -2.2500 -15.2500  19.0000 Du        
  22114 ****        -2.2500 -15.0000  17.2500 Du        
  22115 ****        -2.2500 -15.0000  17.5000 Du        
  22116 ****        -2.2500 -15.0000  17.7500 Du        
  22117 ****        -2.2500 -15.0000  18.0000 Du        
  22118 ****        -2.2500 -15.0000  18.2500 Du        
  22119 ****        -2.2500 -15.0000  18.5000 Du        
  22120 ****        -2.2500 -15.0000  18.7500 Du        
  22121 ****        -2.2500 -14.7500  17.5000 Du        
  22122 ****        -2.2500 -14.7500  17.7500 Du        
  22123 ****        -2.2500 -14.7500  18.0000 Du        
  22124 ****        -2.2500 -14.7500  18.2500 Du        
  22125 ****        -2.2500 -14.7500  18.5000 Du        
  22126 ****        -2.2500 -14.5000  17.7500 Du        
  22127 ****        -2.2500 -14.5000  18.0000 Du        
  22128 ****        -2.2500 -14.5000  18.2500 Du        
  22129 ****        -2.2500  -9.7500  18.0000 Du        
  22130 ****        -2.2500  -9.7500  18.2500 Du        
  22131 ****        -2.2500  -9.7500  18.5000 Du        
  22132 ****        -2.2500  -9.5000  17.7500 Du        
  22133 ****        -2.2500  -9.5000  18.0000 Du        
  22134 ****        -2.2500  -9.5000  18.2500 Du        
  22135 ****        -2.2500  -9.5000  18.5000 Du        
  22136 ****        -2.2500  -9.5000  18.7500 Du        
  22137 ****        -2.2500  -9.2500  17.0000 Du        
  22138 ****        -2.2500  -9.2500  17.2500 Du        
  22139 ****        -2.2500  -9.2500  17.5000 Du        
  22140 ****        -2.2500  -9.2500  17.7500 Du        
  22141 ****        -2.2500  -9.2500  18.0000 Du        
  22142 ****        -2.2500  -9.2500  18.2500 Du        
  22143 ****        -2.2500  -9.2500  18.5000 Du        
  22144 ****        -2.2500  -9.2500  18.7500 Du        
  22145 ****        -2.2500  -9.0000  16.7500 Du        
  22146 ****        -2.2500  -9.0000  17.0000 Du        
  22147 ****        -2.2500  -9.0000  17.2500 Du        
  22148 ****        -2.2500  -9.0000  17.5000 Du        
  22149 ****        -2.2500  -9.0000  17.7500 Du        
  22150 ****        -2.2500  -9.0000  18.0000 Du        
  22151 ****        -2.2500  -9.0000  18.2500 Du        
  22152 ****        -2.2500  -9.0000  18.5000 Du        
  22153 ****        -2.2500  -9.0000  18.7500 Du        
  22154 ****        -2.2500  -8.7500  16.2500 Du        
  22155 ****        -2.2500  -8.7500  16.5000 Du        
  22156 ****        -2.2500  -8.7500  16.7500 Du        
  22157 ****        -2.2500  -8.7500  17.0000 Du        
  22158 ****        -2.2500  -8.7500  17.2500 Du        
  22159 ****        -2.2500  -8.7500  17.5000 Du        
  22160 ****        -2.2500  -8.7500  17.7500 Du        
  22161 ****        -2.2500  -8.7500  18.0000 Du        
  22162 ****        -2.2500  -8.7500  18.2500 Du        
  22163 ****        -2.2500  -8.7500  18.5000 Du        
  22164 ****        -2.2500  -8.7500  18.7500 Du        
  22165 ****        -2.2500  -8.7500  19.0000 Du        
  22166 ****        -2.2500  -8.5000  16.0000 Du        
  22167 ****        -2.2500  -8.5000  16.2500 Du        
  22168 ****        -2.2500  -8.5000  16.5000 Du        
  22169 ****        -2.2500  -8.5000  16.7500 Du        
  22170 ****        -2.2500  -8.5000  17.0000 Du        
  22171 ****        -2.2500  -8.5000  17.2500 Du        
  22172 ****        -2.2500  -8.5000  17.5000 Du        
  22173 ****        -2.2500  -8.5000  17.7500 Du        
  22174 ****        -2.2500  -8.5000  18.0000 Du        
  22175 ****        -2.2500  -8.5000  18.2500 Du        
  22176 ****        -2.2500  -8.5000  18.5000 Du        
  22177 ****        -2.2500  -8.5000  18.7500 Du        
  22178 ****        -2.2500  -8.2500  16.0000 Du        
  22179 ****        -2.2500  -8.2500  16.2500 Du        
  22180 ****        -2.2500  -8.2500  16.5000 Du        
  22181 ****        -2.2500  -8.2500  16.7500 Du        
  22182 ****        -2.2500  -8.2500  17.0000 Du        
  22183 ****        -2.2500  -8.2500  17.2500 Du        
  22184 ****        -2.2500  -8.2500  17.5000 Du        
  22185 ****        -2.2500  -8.2500  17.7500 Du        
  22186 ****        -2.2500  -8.2500  18.0000 Du        
  22187 ****        -2.2500  -8.2500  18.2500 Du        
  22188 ****        -2.2500  -8.2500  18.5000 Du        
  22189 ****        -2.2500  -8.2500  18.7500 Du        
  22190 ****        -2.2500  -8.0000  16.0000 Du        
  22191 ****        -2.2500  -8.0000  16.2500 Du        
  22192 ****        -2.2500  -8.0000  16.5000 Du        
  22193 ****        -2.2500  -8.0000  16.7500 Du        
  22194 ****        -2.2500  -8.0000  17.0000 Du        
  22195 ****        -2.2500  -8.0000  17.2500 Du        
  22196 ****        -2.2500  -8.0000  17.5000 Du        
  22197 ****        -2.2500  -8.0000  17.7500 Du        
  22198 ****        -2.2500  -8.0000  18.0000 Du        
  22199 ****        -2.2500  -8.0000  18.2500 Du        
  22200 ****        -2.2500  -8.0000  18.5000 Du        
  22201 ****        -2.2500  -7.7500  16.2500 Du        
  22202 ****        -2.2500  -7.7500  16.5000 Du        
  22203 ****        -2.2500  -7.7500  16.7500 Du        
  22204 ****        -2.2500  -7.7500  17.0000 Du        
  22205 ****        -2.2500  -7.7500  17.2500 Du        
  22206 ****        -2.2500  -7.7500  17.5000 Du        
  22207 ****        -2.2500  -7.7500  17.7500 Du        
  22208 ****        -2.2500  -7.7500  18.0000 Du        
  22209 ****        -2.2500  -7.7500  18.2500 Du        
  22210 ****        -2.2500  -7.5000  16.7500 Du        
  22211 ****        -2.2500  -7.5000  17.0000 Du        
  22212 ****        -2.2500  -7.5000  17.2500 Du        
  22213 ****        -2.2500  -7.5000  17.5000 Du        
  22214 ****        -2.2500  -7.5000  17.7500 Du        
  22215 ****        -2.2500  -7.5000  18.0000 Du        
  22216 ****        -2.2500  -7.2500  17.2500 Du        
  22217 ****        -2.2500  -7.2500  17.5000 Du        
  22218 ****        -2.0000 -18.0000  14.2500 Du        
  22219 ****        -2.0000 -18.0000  14.5000 Du        
  22220 ****        -2.0000 -18.0000  14.7500 Du        
  22221 ****        -2.0000 -18.0000  15.0000 Du        
  22222 ****        -2.0000 -18.0000  15.2500 Du        
  22223 ****        -2.0000 -17.7500  14.2500 Du        
  22224 ****        -2.0000 -17.7500  14.5000 Du        
  22225 ****        -2.0000 -17.7500  14.7500 Du        
  22226 ****        -2.0000 -17.7500  15.0000 Du        
  22227 ****        -2.0000 -17.7500  15.2500 Du        
  22228 ****        -2.0000 -17.7500  15.5000 Du        
  22229 ****        -2.0000 -17.7500  15.7500 Du        
  22230 ****        -2.0000 -17.5000  14.5000 Du        
  22231 ****        -2.0000 -17.5000  14.7500 Du        
  22232 ****        -2.0000 -17.5000  15.0000 Du        
  22233 ****        -2.0000 -17.5000  15.2500 Du        
  22234 ****        -2.0000 -17.5000  15.5000 Du        
  22235 ****        -2.0000 -17.5000  15.7500 Du        
  22236 ****        -2.0000 -17.5000  16.0000 Du        
  22237 ****        -2.0000 -17.2500  14.5000 Du        
  22238 ****        -2.0000 -17.2500  14.7500 Du        
  22239 ****        -2.0000 -17.2500  15.0000 Du        
  22240 ****        -2.0000 -17.2500  15.2500 Du        
  22241 ****        -2.0000 -17.2500  15.5000 Du        
  22242 ****        -2.0000 -17.2500  15.7500 Du        
  22243 ****        -2.0000 -17.2500  16.0000 Du        
  22244 ****        -2.0000 -17.0000  14.7500 Du        
  22245 ****        -2.0000 -17.0000  15.0000 Du        
  22246 ****        -2.0000 -17.0000  15.2500 Du        
  22247 ****        -2.0000 -17.0000  15.5000 Du        
  22248 ****        -2.0000 -17.0000  15.7500 Du        
  22249 ****        -2.0000 -17.0000  16.0000 Du        
  22250 ****        -2.0000 -17.0000  16.2500 Du        
  22251 ****        -2.0000 -16.7500  14.7500 Du        
  22252 ****        -2.0000 -16.7500  15.0000 Du        
  22253 ****        -2.0000 -16.7500  15.2500 Du        
  22254 ****        -2.0000 -16.7500  15.5000 Du        
  22255 ****        -2.0000 -16.7500  15.7500 Du        
  22256 ****        -2.0000 -16.7500  16.0000 Du        
  22257 ****        -2.0000 -16.7500  16.2500 Du        
  22258 ****        -2.0000 -16.7500  16.5000 Du        
  22259 ****        -2.0000 -16.5000  14.7500 Du        
  22260 ****        -2.0000 -16.5000  15.0000 Du        
  22261 ****        -2.0000 -16.5000  15.2500 Du        
  22262 ****        -2.0000 -16.5000  15.5000 Du        
  22263 ****        -2.0000 -16.5000  15.7500 Du        
  22264 ****        -2.0000 -16.5000  16.0000 Du        
  22265 ****        -2.0000 -16.5000  16.2500 Du        
  22266 ****        -2.0000 -16.5000  16.5000 Du        
  22267 ****        -2.0000 -16.5000  16.7500 Du        
  22268 ****        -2.0000 -16.2500  14.7500 Du        
  22269 ****        -2.0000 -16.2500  15.0000 Du        
  22270 ****        -2.0000 -16.2500  15.2500 Du        
  22271 ****        -2.0000 -16.2500  15.5000 Du        
  22272 ****        -2.0000 -16.2500  15.7500 Du        
  22273 ****        -2.0000 -16.2500  16.0000 Du        
  22274 ****        -2.0000 -16.2500  16.2500 Du        
  22275 ****        -2.0000 -16.2500  16.5000 Du        
  22276 ****        -2.0000 -16.2500  16.7500 Du        
  22277 ****        -2.0000 -16.2500  17.0000 Du        
  22278 ****        -2.0000 -16.2500  17.2500 Du        
  22279 ****        -2.0000 -16.0000  14.7500 Du        
  22280 ****        -2.0000 -16.0000  15.0000 Du        
  22281 ****        -2.0000 -16.0000  15.2500 Du        
  22282 ****        -2.0000 -16.0000  15.5000 Du        
  22283 ****        -2.0000 -16.0000  15.7500 Du        
  22284 ****        -2.0000 -16.0000  16.0000 Du        
  22285 ****        -2.0000 -16.0000  16.2500 Du        
  22286 ****        -2.0000 -16.0000  16.5000 Du        
  22287 ****        -2.0000 -16.0000  16.7500 Du        
  22288 ****        -2.0000 -16.0000  17.0000 Du        
  22289 ****        -2.0000 -16.0000  17.2500 Du        
  22290 ****        -2.0000 -16.0000  17.5000 Du        
  22291 ****        -2.0000 -16.0000  17.7500 Du        
  22292 ****        -2.0000 -16.0000  18.0000 Du        
  22293 ****        -2.0000 -15.7500  15.2500 Du        
  22294 ****        -2.0000 -15.7500  15.5000 Du        
  22295 ****        -2.0000 -15.7500  15.7500 Du        
  22296 ****        -2.0000 -15.7500  16.0000 Du        
  22297 ****        -2.0000 -15.7500  16.2500 Du        
  22298 ****        -2.0000 -15.7500  16.5000 Du        
  22299 ****        -2.0000 -15.7500  16.7500 Du        
  22300 ****        -2.0000 -15.7500  17.0000 Du        
  22301 ****        -2.0000 -15.7500  17.2500 Du        
  22302 ****        -2.0000 -15.7500  17.5000 Du        
  22303 ****        -2.0000 -15.7500  17.7500 Du        
  22304 ****        -2.0000 -15.7500  18.0000 Du        
  22305 ****        -2.0000 -15.7500  18.2500 Du        
  22306 ****        -2.0000 -15.5000  16.2500 Du        
  22307 ****        -2.0000 -15.5000  16.5000 Du        
  22308 ****        -2.0000 -15.5000  16.7500 Du        
  22309 ****        -2.0000 -15.5000  17.0000 Du        
  22310 ****        -2.0000 -15.5000  17.2500 Du        
  22311 ****        -2.0000 -15.5000  17.5000 Du        
  22312 ****        -2.0000 -15.5000  17.7500 Du        
  22313 ****        -2.0000 -15.5000  18.0000 Du        
  22314 ****        -2.0000 -15.5000  18.2500 Du        
  22315 ****        -2.0000 -15.5000  18.5000 Du        
  22316 ****        -2.0000 -15.2500  17.0000 Du        
  22317 ****        -2.0000 -15.2500  17.2500 Du        
  22318 ****        -2.0000 -15.2500  17.5000 Du        
  22319 ****        -2.0000 -15.2500  17.7500 Du        
  22320 ****        -2.0000 -15.2500  18.0000 Du        
  22321 ****        -2.0000 -15.2500  18.2500 Du        
  22322 ****        -2.0000 -15.2500  18.5000 Du        
  22323 ****        -2.0000 -15.0000  17.2500 Du        
  22324 ****        -2.0000 -15.0000  17.5000 Du        
  22325 ****        -2.0000 -15.0000  17.7500 Du        
  22326 ****        -2.0000 -15.0000  18.0000 Du        
  22327 ****        -2.0000 -15.0000  18.2500 Du        
  22328 ****        -2.0000 -14.7500  17.7500 Du        
  22329 ****        -2.0000 -14.7500  18.0000 Du        
  22330 ****        -2.0000 -10.0000  18.0000 Du        
  22331 ****        -2.0000 -10.0000  18.2500 Du        
  22332 ****        -2.0000 -10.0000  18.5000 Du        
  22333 ****        -2.0000  -9.7500  17.7500 Du        
  22334 ****        -2.0000  -9.7500  18.0000 Du        
  22335 ****        -2.0000  -9.7500  18.2500 Du        
  22336 ****        -2.0000  -9.7500  18.5000 Du        
  22337 ****        -2.0000  -9.5000  17.5000 Du        
  22338 ****        -2.0000  -9.5000  17.7500 Du        
  22339 ****        -2.0000  -9.5000  18.0000 Du        
  22340 ****        -2.0000  -9.5000  18.2500 Du        
  22341 ****        -2.0000  -9.5000  18.5000 Du        
  22342 ****        -2.0000  -9.5000  18.7500 Du        
  22343 ****        -2.0000  -9.2500  17.0000 Du        
  22344 ****        -2.0000  -9.2500  17.2500 Du        
  22345 ****        -2.0000  -9.2500  17.5000 Du        
  22346 ****        -2.0000  -9.2500  17.7500 Du        
  22347 ****        -2.0000  -9.2500  18.0000 Du        
  22348 ****        -2.0000  -9.2500  18.2500 Du        
  22349 ****        -2.0000  -9.2500  18.5000 Du        
  22350 ****        -2.0000  -9.2500  18.7500 Du        
  22351 ****        -2.0000  -9.0000  16.7500 Du        
  22352 ****        -2.0000  -9.0000  17.0000 Du        
  22353 ****        -2.0000  -9.0000  17.2500 Du        
  22354 ****        -2.0000  -9.0000  17.5000 Du        
  22355 ****        -2.0000  -9.0000  17.7500 Du        
  22356 ****        -2.0000  -9.0000  18.0000 Du        
  22357 ****        -2.0000  -9.0000  18.2500 Du        
  22358 ****        -2.0000  -9.0000  18.5000 Du        
  22359 ****        -2.0000  -9.0000  18.7500 Du        
  22360 ****        -2.0000  -8.7500  16.5000 Du        
  22361 ****        -2.0000  -8.7500  16.7500 Du        
  22362 ****        -2.0000  -8.7500  17.0000 Du        
  22363 ****        -2.0000  -8.7500  17.2500 Du        
  22364 ****        -2.0000  -8.7500  17.5000 Du        
  22365 ****        -2.0000  -8.7500  17.7500 Du        
  22366 ****        -2.0000  -8.7500  18.0000 Du        
  22367 ****        -2.0000  -8.7500  18.2500 Du        
  22368 ****        -2.0000  -8.7500  18.5000 Du        
  22369 ****        -2.0000  -8.5000  16.5000 Du        
  22370 ****        -2.0000  -8.5000  16.7500 Du        
  22371 ****        -2.0000  -8.5000  17.0000 Du        
  22372 ****        -2.0000  -8.5000  17.2500 Du        
  22373 ****        -2.0000  -8.5000  17.5000 Du        
  22374 ****        -2.0000  -8.5000  17.7500 Du        
  22375 ****        -2.0000  -8.5000  18.0000 Du        
  22376 ****        -2.0000  -8.5000  18.2500 Du        
  22377 ****        -2.0000  -8.2500  16.5000 Du        
  22378 ****        -2.0000  -8.2500  16.7500 Du        
  22379 ****        -2.0000  -8.2500  17.0000 Du        
  22380 ****        -2.0000  -8.2500  17.2500 Du        
  22381 ****        -2.0000  -8.2500  17.5000 Du        
  22382 ****        -2.0000  -8.2500  17.7500 Du        
  22383 ****        -2.0000  -8.2500  18.0000 Du        
  22384 ****        -2.0000  -8.2500  18.2500 Du        
  22385 ****        -2.0000  -8.0000  16.2500 Du        
  22386 ****        -2.0000  -8.0000  16.5000 Du        
  22387 ****        -2.0000  -8.0000  16.7500 Du        
  22388 ****        -2.0000  -8.0000  17.0000 Du        
  22389 ****        -2.0000  -8.0000  17.2500 Du        
  22390 ****        -2.0000  -8.0000  17.5000 Du        
  22391 ****        -2.0000  -8.0000  17.7500 Du        
  22392 ****        -2.0000  -8.0000  18.0000 Du        
  22393 ****        -2.0000  -7.7500  16.2500 Du        
  22394 ****        -2.0000  -7.7500  16.5000 Du        
  22395 ****        -2.0000  -7.7500  16.7500 Du        
  22396 ****        -2.0000  -7.7500  17.0000 Du        
  22397 ****        -2.0000  -7.7500  17.2500 Du        
  22398 ****        -2.0000  -7.7500  17.5000 Du        
  22399 ****        -2.0000  -7.7500  17.7500 Du        
  22400 ****        -2.0000  -7.5000  16.5000 Du        
  22401 ****        -2.0000  -7.5000  16.7500 Du        
  22402 ****        -2.0000  -7.5000  17.0000 Du        
  22403 ****        -2.0000  -7.5000  17.2500 Du        
  22404 ****        -2.0000  -7.5000  17.5000 Du        
  22405 ****        -2.0000  -7.2500  17.0000 Du        
  22406 ****        -2.0000  -7.2500  17.2500 Du        
  22407 ****        -1.7500 -17.7500  14.0000 Du        
  22408 ****        -1.7500 -17.7500  14.2500 Du        
  22409 ****        -1.7500 -17.7500  14.5000 Du        
  22410 ****        -1.7500 -17.7500  14.7500 Du        
  22411 ****        -1.7500 -17.7500  15.0000 Du        
  22412 ****        -1.7500 -17.5000  14.0000 Du        
  22413 ****        -1.7500 -17.5000  14.2500 Du        
  22414 ****        -1.7500 -17.5000  14.5000 Du        
  22415 ****        -1.7500 -17.5000  14.7500 Du        
  22416 ****        -1.7500 -17.5000  15.0000 Du        
  22417 ****        -1.7500 -17.5000  15.2500 Du        
  22418 ****        -1.7500 -17.5000  15.5000 Du        
  22419 ****        -1.7500 -17.5000  15.7500 Du        
  22420 ****        -1.7500 -17.2500  14.0000 Du        
  22421 ****        -1.7500 -17.2500  14.2500 Du        
  22422 ****        -1.7500 -17.2500  14.5000 Du        
  22423 ****        -1.7500 -17.2500  14.7500 Du        
  22424 ****        -1.7500 -17.2500  15.0000 Du        
  22425 ****        -1.7500 -17.2500  15.2500 Du        
  22426 ****        -1.7500 -17.2500  15.5000 Du        
  22427 ****        -1.7500 -17.2500  15.7500 Du        
  22428 ****        -1.7500 -17.2500  16.0000 Du        
  22429 ****        -1.7500 -17.0000  14.0000 Du        
  22430 ****        -1.7500 -17.0000  14.2500 Du        
  22431 ****        -1.7500 -17.0000  14.5000 Du        
  22432 ****        -1.7500 -17.0000  14.7500 Du        
  22433 ****        -1.7500 -17.0000  15.0000 Du        
  22434 ****        -1.7500 -17.0000  15.2500 Du        
  22435 ****        -1.7500 -17.0000  15.5000 Du        
  22436 ****        -1.7500 -17.0000  15.7500 Du        
  22437 ****        -1.7500 -17.0000  16.0000 Du        
  22438 ****        -1.7500 -17.0000  16.2500 Du        
  22439 ****        -1.7500 -16.7500  14.0000 Du        
  22440 ****        -1.7500 -16.7500  14.2500 Du        
  22441 ****        -1.7500 -16.7500  14.5000 Du        
  22442 ****        -1.7500 -16.7500  14.7500 Du        
  22443 ****        -1.7500 -16.7500  15.0000 Du        
  22444 ****        -1.7500 -16.7500  15.2500 Du        
  22445 ****        -1.7500 -16.7500  15.5000 Du        
  22446 ****        -1.7500 -16.7500  15.7500 Du        
  22447 ****        -1.7500 -16.7500  16.0000 Du        
  22448 ****        -1.7500 -16.7500  16.2500 Du        
  22449 ****        -1.7500 -16.7500  16.5000 Du        
  22450 ****        -1.7500 -16.5000  14.0000 Du        
  22451 ****        -1.7500 -16.5000  14.2500 Du        
  22452 ****        -1.7500 -16.5000  14.5000 Du        
  22453 ****        -1.7500 -16.5000  14.7500 Du        
  22454 ****        -1.7500 -16.5000  15.0000 Du        
  22455 ****        -1.7500 -16.5000  15.2500 Du        
  22456 ****        -1.7500 -16.5000  15.5000 Du        
  22457 ****        -1.7500 -16.5000  15.7500 Du        
  22458 ****        -1.7500 -16.5000  16.0000 Du        
  22459 ****        -1.7500 -16.5000  16.2500 Du        
  22460 ****        -1.7500 -16.5000  16.5000 Du        
  22461 ****        -1.7500 -16.5000  16.7500 Du        
  22462 ****        -1.7500 -16.2500  14.0000 Du        
  22463 ****        -1.7500 -16.2500  14.2500 Du        
  22464 ****        -1.7500 -16.2500  14.5000 Du        
  22465 ****        -1.7500 -16.2500  14.7500 Du        
  22466 ****        -1.7500 -16.2500  15.0000 Du        
  22467 ****        -1.7500 -16.2500  15.2500 Du        
  22468 ****        -1.7500 -16.2500  15.5000 Du        
  22469 ****        -1.7500 -16.2500  15.7500 Du        
  22470 ****        -1.7500 -16.2500  16.0000 Du        
  22471 ****        -1.7500 -16.2500  16.2500 Du        
  22472 ****        -1.7500 -16.2500  16.5000 Du        
  22473 ****        -1.7500 -16.2500  16.7500 Du        
  22474 ****        -1.7500 -16.2500  17.0000 Du        
  22475 ****        -1.7500 -16.0000  14.2500 Du        
  22476 ****        -1.7500 -16.0000  14.5000 Du        
  22477 ****        -1.7500 -16.0000  14.7500 Du        
  22478 ****        -1.7500 -16.0000  15.0000 Du        
  22479 ****        -1.7500 -16.0000  15.2500 Du        
  22480 ****        -1.7500 -16.0000  15.5000 Du        
  22481 ****        -1.7500 -16.0000  15.7500 Du        
  22482 ****        -1.7500 -16.0000  16.0000 Du        
  22483 ****        -1.7500 -16.0000  16.2500 Du        
  22484 ****        -1.7500 -16.0000  16.5000 Du        
  22485 ****        -1.7500 -16.0000  16.7500 Du        
  22486 ****        -1.7500 -16.0000  17.0000 Du        
  22487 ****        -1.7500 -16.0000  17.2500 Du        
  22488 ****        -1.7500 -16.0000  17.5000 Du        
  22489 ****        -1.7500 -15.7500  15.2500 Du        
  22490 ****        -1.7500 -15.7500  15.5000 Du        
  22491 ****        -1.7500 -15.7500  15.7500 Du        
  22492 ****        -1.7500 -15.7500  16.0000 Du        
  22493 ****        -1.7500 -15.7500  16.2500 Du        
  22494 ****        -1.7500 -15.7500  16.5000 Du        
  22495 ****        -1.7500 -15.7500  16.7500 Du        
  22496 ****        -1.7500 -15.7500  17.0000 Du        
  22497 ****        -1.7500 -15.7500  17.2500 Du        
  22498 ****        -1.7500 -15.7500  17.5000 Du        
  22499 ****        -1.7500 -15.7500  17.7500 Du        
  22500 ****        -1.7500 -15.5000  16.5000 Du        
  22501 ****        -1.7500 -15.5000  16.7500 Du        
  22502 ****        -1.7500 -15.5000  17.0000 Du        
  22503 ****        -1.7500 -15.5000  17.2500 Du        
  22504 ****        -1.7500 -15.5000  17.5000 Du        
  22505 ****        -1.7500 -15.5000  17.7500 Du        
  22506 ****        -1.7500 -15.5000  18.0000 Du        
  22507 ****        -1.7500 -15.2500  17.0000 Du        
  22508 ****        -1.7500 -15.2500  17.2500 Du        
  22509 ****        -1.7500 -15.2500  17.5000 Du        
  22510 ****        -1.7500 -15.2500  17.7500 Du        
  22511 ****        -1.7500 -10.0000  18.2500 Du        
  22512 ****        -1.7500  -9.7500  18.0000 Du        
  22513 ****        -1.7500  -9.7500  18.2500 Du        
  22514 ****        -1.7500  -9.5000  18.0000 Du        
  22515 ****        -1.7500  -9.5000  18.2500 Du        
  22516 ****        -1.7500  -7.7500  17.0000 Du        
  22517 ****        -1.7500  -7.7500  17.2500 Du        
  22518 ****        -1.5000 -17.5000  14.0000 Du        
  22519 ****        -1.5000 -17.5000  14.2500 Du        
  22520 ****        -1.5000 -17.5000  14.5000 Du        
  22521 ****        -1.5000 -17.5000  14.7500 Du        
  22522 ****        -1.5000 -17.5000  15.0000 Du        
  22523 ****        -1.5000 -17.5000  15.2500 Du        
  22524 ****        -1.5000 -17.2500  13.7500 Du        
  22525 ****        -1.5000 -17.2500  14.0000 Du        
  22526 ****        -1.5000 -17.2500  14.2500 Du        
  22527 ****        -1.5000 -17.2500  14.5000 Du        
  22528 ****        -1.5000 -17.2500  14.7500 Du        
  22529 ****        -1.5000 -17.2500  15.0000 Du        
  22530 ****        -1.5000 -17.2500  15.2500 Du        
  22531 ****        -1.5000 -17.2500  15.5000 Du        
  22532 ****        -1.5000 -17.2500  15.7500 Du        
  22533 ****        -1.5000 -17.0000  13.7500 Du        
  22534 ****        -1.5000 -17.0000  14.0000 Du        
  22535 ****        -1.5000 -17.0000  14.2500 Du        
  22536 ****        -1.5000 -17.0000  14.5000 Du        
  22537 ****        -1.5000 -17.0000  14.7500 Du        
  22538 ****        -1.5000 -17.0000  15.0000 Du        
  22539 ****        -1.5000 -17.0000  15.2500 Du        
  22540 ****        -1.5000 -17.0000  15.5000 Du        
  22541 ****        -1.5000 -17.0000  15.7500 Du        
  22542 ****        -1.5000 -17.0000  16.0000 Du        
  22543 ****        -1.5000 -16.7500  13.7500 Du        
  22544 ****        -1.5000 -16.7500  14.0000 Du        
  22545 ****        -1.5000 -16.7500  14.2500 Du        
  22546 ****        -1.5000 -16.7500  14.5000 Du        
  22547 ****        -1.5000 -16.7500  14.7500 Du        
  22548 ****        -1.5000 -16.7500  15.0000 Du        
  22549 ****        -1.5000 -16.7500  15.2500 Du        
  22550 ****        -1.5000 -16.7500  15.5000 Du        
  22551 ****        -1.5000 -16.7500  15.7500 Du        
  22552 ****        -1.5000 -16.7500  16.0000 Du        
  22553 ****        -1.5000 -16.7500  16.2500 Du        
  22554 ****        -1.5000 -16.5000  13.7500 Du        
  22555 ****        -1.5000 -16.5000  14.0000 Du        
  22556 ****        -1.5000 -16.5000  14.2500 Du        
  22557 ****        -1.5000 -16.5000  14.5000 Du        
  22558 ****        -1.5000 -16.5000  14.7500 Du        
  22559 ****        -1.5000 -16.5000  15.0000 Du        
  22560 ****        -1.5000 -16.5000  15.2500 Du        
  22561 ****        -1.5000 -16.5000  15.5000 Du        
  22562 ****        -1.5000 -16.5000  15.7500 Du        
  22563 ****        -1.5000 -16.5000  16.0000 Du        
  22564 ****        -1.5000 -16.5000  16.2500 Du        
  22565 ****        -1.5000 -16.5000  16.5000 Du        
  22566 ****        -1.5000 -16.2500  13.7500 Du        
  22567 ****        -1.5000 -16.2500  14.0000 Du        
  22568 ****        -1.5000 -16.2500  14.2500 Du        
  22569 ****        -1.5000 -16.2500  14.5000 Du        
  22570 ****        -1.5000 -16.2500  14.7500 Du        
  22571 ****        -1.5000 -16.2500  15.0000 Du        
  22572 ****        -1.5000 -16.2500  15.2500 Du        
  22573 ****        -1.5000 -16.2500  15.5000 Du        
  22574 ****        -1.5000 -16.2500  15.7500 Du        
  22575 ****        -1.5000 -16.2500  16.0000 Du        
  22576 ****        -1.5000 -16.2500  16.2500 Du        
  22577 ****        -1.5000 -16.2500  16.5000 Du        
  22578 ****        -1.5000 -16.2500  16.7500 Du        
  22579 ****        -1.5000 -16.2500  17.0000 Du        
  22580 ****        -1.5000 -16.0000  14.2500 Du        
  22581 ****        -1.5000 -16.0000  14.5000 Du        
  22582 ****        -1.5000 -16.0000  14.7500 Du        
  22583 ****        -1.5000 -16.0000  15.0000 Du        
  22584 ****        -1.5000 -16.0000  15.2500 Du        
  22585 ****        -1.5000 -16.0000  15.5000 Du        
  22586 ****        -1.5000 -16.0000  15.7500 Du        
  22587 ****        -1.5000 -16.0000  16.0000 Du        
  22588 ****        -1.5000 -16.0000  16.2500 Du        
  22589 ****        -1.5000 -16.0000  16.5000 Du        
  22590 ****        -1.5000 -16.0000  16.7500 Du        
  22591 ****        -1.5000 -16.0000  17.0000 Du        
  22592 ****        -1.5000 -15.7500  16.0000 Du        
  22593 ****        -1.5000 -15.7500  16.2500 Du        
  22594 ****        -1.5000 -15.7500  16.5000 Du        
  22595 ****        -1.5000 -15.7500  16.7500 Du        
  22596 ****        -1.5000 -15.7500  17.0000 Du        
  22597 ****        -1.2500 -17.2500  13.7500 Du        
  22598 ****        -1.2500 -17.2500  14.0000 Du        
  22599 ****        -1.2500 -17.2500  14.2500 Du        
  22600 ****        -1.2500 -17.2500  14.5000 Du        
  22601 ****        -1.2500 -17.2500  14.7500 Du        
  22602 ****        -1.2500 -17.2500  15.0000 Du        
  22603 ****        -1.2500 -17.2500  15.2500 Du        
  22604 ****        -1.2500 -17.0000  13.7500 Du        
  22605 ****        -1.2500 -17.0000  14.0000 Du        
  22606 ****        -1.2500 -17.0000  14.2500 Du        
  22607 ****        -1.2500 -17.0000  14.5000 Du        
  22608 ****        -1.2500 -17.0000  14.7500 Du        
  22609 ****        -1.2500 -17.0000  15.0000 Du        
  22610 ****        -1.2500 -17.0000  15.2500 Du        
  22611 ****        -1.2500 -17.0000  15.5000 Du        
  22612 ****        -1.2500 -17.0000  15.7500 Du        
  22613 ****        -1.2500 -16.7500  13.7500 Du        
  22614 ****        -1.2500 -16.7500  14.0000 Du        
  22615 ****        -1.2500 -16.7500  14.2500 Du        
  22616 ****        -1.2500 -16.7500  14.5000 Du        
  22617 ****        -1.2500 -16.7500  14.7500 Du        
  22618 ****        -1.2500 -16.7500  15.0000 Du        
  22619 ****        -1.2500 -16.7500  15.2500 Du        
  22620 ****        -1.2500 -16.7500  15.5000 Du        
  22621 ****        -1.2500 -16.7500  15.7500 Du        
  22622 ****        -1.2500 -16.7500  16.0000 Du        
  22623 ****        -1.2500 -16.5000  13.7500 Du        
  22624 ****        -1.2500 -16.5000  14.0000 Du        
  22625 ****        -1.2500 -16.5000  14.2500 Du        
  22626 ****        -1.2500 -16.5000  14.5000 Du        
  22627 ****        -1.2500 -16.5000  14.7500 Du        
  22628 ****        -1.2500 -16.5000  15.0000 Du        
  22629 ****        -1.2500 -16.5000  15.2500 Du        
  22630 ****        -1.2500 -16.5000  15.5000 Du        
  22631 ****        -1.2500 -16.5000  15.7500 Du        
  22632 ****        -1.2500 -16.5000  16.0000 Du        
  22633 ****        -1.2500 -16.2500  13.7500 Du        
  22634 ****        -1.2500 -16.2500  14.0000 Du        
  22635 ****        -1.2500 -16.2500  14.2500 Du        
  22636 ****        -1.2500 -16.2500  14.5000 Du        
  22637 ****        -1.2500 -16.2500  14.7500 Du        
  22638 ****        -1.2500 -16.2500  15.0000 Du        
  22639 ****        -1.2500 -16.2500  15.2500 Du        
  22640 ****        -1.2500 -16.2500  15.5000 Du        
  22641 ****        -1.2500 -16.2500  15.7500 Du        
  22642 ****        -1.2500 -16.2500  16.0000 Du        
  22643 ****        -1.2500 -16.0000  14.5000 Du        
  22644 ****        -1.2500 -16.0000  14.7500 Du        
  22645 ****        -1.2500 -16.0000  15.0000 Du        
  22646 ****        -1.2500 -16.0000  15.2500 Du        
  22647 ****        -1.2500  -4.7500  13.0000 Du        
  22648 ****        -1.2500  -4.5000  13.0000 Du        
  22649 ****        -1.2500  -4.5000  13.2500 Du        
  22650 ****        -1.2500  -4.2500  13.0000 Du        
  22651 ****        -1.2500  -4.2500  13.2500 Du        
  22652 ****        -1.2500   6.2500  19.0000 Du        
  22653 ****        -1.2500   6.2500  19.2500 Du        
  22654 ****        -1.0000 -17.2500  14.2500 Du        
  22655 ****        -1.0000 -17.0000  14.0000 Du        
  22656 ****        -1.0000 -17.0000  14.2500 Du        
  22657 ****        -1.0000 -17.0000  14.5000 Du        
  22658 ****        -1.0000 -17.0000  14.7500 Du        
  22659 ****        -1.0000 -17.0000  15.0000 Du        
  22660 ****        -1.0000 -17.0000  15.2500 Du        
  22661 ****        -1.0000 -16.7500  13.7500 Du        
  22662 ****        -1.0000 -16.7500  14.0000 Du        
  22663 ****        -1.0000 -16.7500  14.2500 Du        
  22664 ****        -1.0000 -16.7500  14.5000 Du        
  22665 ****        -1.0000 -16.7500  14.7500 Du        
  22666 ****        -1.0000 -16.7500  15.0000 Du        
  22667 ****        -1.0000 -16.5000  13.7500 Du        
  22668 ****        -1.0000 -16.5000  14.0000 Du        
  22669 ****        -1.0000 -16.5000  14.2500 Du        
  22670 ****        -1.0000 -16.5000  14.5000 Du        
  22671 ****        -1.0000 -16.5000  14.7500 Du        
  22672 ****        -1.0000 -16.5000  15.0000 Du        
  22673 ****        -1.0000 -16.2500  13.7500 Du        
  22674 ****        -1.0000 -16.2500  14.0000 Du        
  22675 ****        -1.0000 -16.2500  14.2500 Du        
  22676 ****        -1.0000 -16.2500  14.5000 Du        
  22677 ****        -1.0000 -16.2500  14.7500 Du        
  22678 ****        -1.0000  -4.5000  12.7500 Du        
  22679 ****        -1.0000  -4.5000  13.0000 Du        
  22680 ****        -1.0000  -4.5000  13.2500 Du        
  22681 ****        -1.0000  -4.5000  13.5000 Du        
  22682 ****        -1.0000  -4.5000  13.7500 Du        
  22683 ****        -1.0000  -4.2500  12.7500 Du        
  22684 ****        -1.0000  -4.2500  13.0000 Du        
  22685 ****        -1.0000  -4.2500  13.2500 Du        
  22686 ****        -1.0000  -4.2500  13.5000 Du        
  22687 ****        -1.0000  -4.2500  13.7500 Du        
  22688 ****        -1.0000  -4.0000  13.0000 Du        
  22689 ****        -1.0000  -4.0000  13.2500 Du        
  22690 ****        -1.0000  -4.0000  13.5000 Du        
  22691 ****        -1.0000  -4.0000  13.7500 Du        
  22692 ****        -1.0000  -4.0000  14.0000 Du        
  22693 ****        -1.0000  -3.7500  13.2500 Du        
  22694 ****        -1.0000  -3.7500  13.5000 Du        
  22695 ****        -1.0000  -3.7500  13.7500 Du        
  22696 ****        -1.0000  -3.7500  14.0000 Du        
  22697 ****        -1.0000   6.0000  19.0000 Du        
  22698 ****        -1.0000   6.0000  19.2500 Du        
  22699 ****        -1.0000   6.2500  18.7500 Du        
  22700 ****        -1.0000   6.2500  19.0000 Du        
  22701 ****        -1.0000   6.2500  19.2500 Du        
  22702 ****        -1.0000   6.2500  19.5000 Du        
  22703 ****        -1.0000   6.5000  18.7500 Du        
  22704 ****        -1.0000   6.5000  19.0000 Du        
  22705 ****        -1.0000   6.5000  19.2500 Du        
  22706 ****        -1.0000   6.5000  19.5000 Du        
  22707 ****        -1.0000   6.7500  18.7500 Du        
  22708 ****        -1.0000   6.7500  19.0000 Du        
  22709 ****        -0.7500 -16.7500  14.0000 Du        
  22710 ****        -0.7500 -16.7500  14.2500 Du        
  22711 ****        -0.7500 -16.5000  14.0000 Du        
  22712 ****        -0.7500 -16.5000  14.2500 Du        
  22713 ****        -0.7500  -4.5000  13.2500 Du        
  22714 ****        -0.7500  -4.5000  13.5000 Du        
  22715 ****        -0.7500  -4.5000  13.7500 Du        
  22716 ****        -0.7500  -4.5000  14.0000 Du        
  22717 ****        -0.7500  -4.5000  14.2500 Du        
  22718 ****        -0.7500  -4.2500  12.7500 Du        
  22719 ****        -0.7500  -4.2500  13.0000 Du        
  22720 ****        -0.7500  -4.2500  13.2500 Du        
  22721 ****        -0.7500  -4.2500  13.5000 Du        
  22722 ****        -0.7500  -4.2500  13.7500 Du        
  22723 ****        -0.7500  -4.2500  14.0000 Du        
  22724 ****        -0.7500  -4.2500  14.2500 Du        
  22725 ****        -0.7500  -4.0000  12.7500 Du        
  22726 ****        -0.7500  -4.0000  13.0000 Du        
  22727 ****        -0.7500  -4.0000  13.2500 Du        
  22728 ****        -0.7500  -4.0000  13.5000 Du        
  22729 ****        -0.7500  -4.0000  13.7500 Du        
  22730 ****        -0.7500  -4.0000  14.0000 Du        
  22731 ****        -0.7500  -4.0000  14.2500 Du        
  22732 ****        -0.7500  -3.7500  13.0000 Du        
  22733 ****        -0.7500  -3.7500  13.2500 Du        
  22734 ****        -0.7500  -3.7500  13.5000 Du        
  22735 ****        -0.7500  -3.7500  13.7500 Du        
  22736 ****        -0.7500  -3.7500  14.0000 Du        
  22737 ****        -0.7500  -3.7500  14.2500 Du        
  22738 ****        -0.7500  -3.5000  13.5000 Du        
  22739 ****        -0.7500  -3.5000  13.7500 Du        
  22740 ****        -0.7500  -3.5000  14.0000 Du        
  22741 ****        -0.7500  -3.5000  14.2500 Du        
  22742 ****        -0.7500  -3.2500  13.7500 Du        
  22743 ****        -0.7500  -3.2500  14.0000 Du        
  22744 ****        -0.7500  -3.2500  14.2500 Du        
  22745 ****        -0.7500  -3.2500  14.5000 Du        
  22746 ****        -0.7500  -3.0000  14.0000 Du        
  22747 ****        -0.7500  -3.0000  14.2500 Du        
  22748 ****        -0.7500  -3.0000  14.5000 Du        
  22749 ****        -0.7500  -3.0000  14.7500 Du        
  22750 ****        -0.7500  -2.7500  14.7500 Du        
  22751 ****        -0.7500   5.7500  19.2500 Du        
  22752 ****        -0.7500   5.7500  24.7500 Du        
  22753 ****        -0.7500   6.0000  18.7500 Du        
  22754 ****        -0.7500   6.0000  19.0000 Du        
  22755 ****        -0.7500   6.0000  19.2500 Du        
  22756 ****        -0.7500   6.0000  19.5000 Du        
  22757 ****        -0.7500   6.0000  19.7500 Du        
  22758 ****        -0.7500   6.0000  24.7500 Du        
  22759 ****        -0.7500   6.2500  18.7500 Du        
  22760 ****        -0.7500   6.2500  19.0000 Du        
  22761 ****        -0.7500   6.2500  19.2500 Du        
  22762 ****        -0.7500   6.2500  19.5000 Du        
  22763 ****        -0.7500   6.2500  19.7500 Du        
  22764 ****        -0.7500   6.5000  18.5000 Du        
  22765 ****        -0.7500   6.5000  18.7500 Du        
  22766 ****        -0.7500   6.5000  19.0000 Du        
  22767 ****        -0.7500   6.5000  19.2500 Du        
  22768 ****        -0.7500   6.5000  19.5000 Du        
  22769 ****        -0.7500   6.5000  19.7500 Du        
  22770 ****        -0.7500   6.7500  18.5000 Du        
  22771 ****        -0.7500   6.7500  18.7500 Du        
  22772 ****        -0.7500   6.7500  19.0000 Du        
  22773 ****        -0.7500   6.7500  19.2500 Du        
  22774 ****        -0.7500   6.7500  19.5000 Du        
  22775 ****        -0.7500   7.0000  18.2500 Du        
  22776 ****        -0.7500   7.0000  18.5000 Du        
  22777 ****        -0.7500   7.0000  18.7500 Du        
  22778 ****        -0.5000  -5.0000  15.5000 Du        
  22779 ****        -0.5000  -5.0000  15.7500 Du        
  22780 ****        -0.5000  -4.7500  15.0000 Du        
  22781 ****        -0.5000  -4.7500  15.2500 Du        
  22782 ****        -0.5000  -4.7500  15.5000 Du        
  22783 ****        -0.5000  -4.7500  15.7500 Du        
  22784 ****        -0.5000  -4.5000  14.0000 Du        
  22785 ****        -0.5000  -4.5000  14.2500 Du        
  22786 ****        -0.5000  -4.5000  14.7500 Du        
  22787 ****        -0.5000  -4.5000  15.0000 Du        
  22788 ****        -0.5000  -4.5000  15.2500 Du        
  22789 ****        -0.5000  -4.5000  15.5000 Du        
  22790 ****        -0.5000  -4.5000  15.7500 Du        
  22791 ****        -0.5000  -4.2500  13.2500 Du        
  22792 ****        -0.5000  -4.2500  13.5000 Du        
  22793 ****        -0.5000  -4.2500  13.7500 Du        
  22794 ****        -0.5000  -4.2500  14.0000 Du        
  22795 ****        -0.5000  -4.2500  14.2500 Du        
  22796 ****        -0.5000  -4.2500  14.5000 Du        
  22797 ****        -0.5000  -4.2500  14.7500 Du        
  22798 ****        -0.5000  -4.2500  15.0000 Du        
  22799 ****        -0.5000  -4.2500  15.2500 Du        
  22800 ****        -0.5000  -4.2500  15.5000 Du        
  22801 ****        -0.5000  -4.2500  15.7500 Du        
  22802 ****        -0.5000  -4.0000  12.7500 Du        
  22803 ****        -0.5000  -4.0000  13.0000 Du        
  22804 ****        -0.5000  -4.0000  13.2500 Du        
  22805 ****        -0.5000  -4.0000  13.5000 Du        
  22806 ****        -0.5000  -4.0000  13.7500 Du        
  22807 ****        -0.5000  -4.0000  14.0000 Du        
  22808 ****        -0.5000  -4.0000  14.2500 Du        
  22809 ****        -0.5000  -4.0000  14.5000 Du        
  22810 ****        -0.5000  -4.0000  14.7500 Du        
  22811 ****        -0.5000  -4.0000  15.0000 Du        
  22812 ****        -0.5000  -4.0000  15.2500 Du        
  22813 ****        -0.5000  -3.7500  13.0000 Du        
  22814 ****        -0.5000  -3.7500  13.2500 Du        
  22815 ****        -0.5000  -3.7500  13.5000 Du        
  22816 ****        -0.5000  -3.7500  13.7500 Du        
  22817 ****        -0.5000  -3.7500  14.0000 Du        
  22818 ****        -0.5000  -3.7500  14.2500 Du        
  22819 ****        -0.5000  -3.5000  13.2500 Du        
  22820 ****        -0.5000  -3.5000  13.5000 Du        
  22821 ****        -0.5000  -3.5000  13.7500 Du        
  22822 ****        -0.5000  -3.5000  14.0000 Du        
  22823 ****        -0.5000  -3.5000  14.2500 Du        
  22824 ****        -0.5000  -3.5000  14.5000 Du        
  22825 ****        -0.5000  -3.5000  14.7500 Du        
  22826 ****        -0.5000  -3.5000  15.0000 Du        
  22827 ****        -0.5000  -3.5000  15.2500 Du        
  22828 ****        -0.5000  -3.2500  14.0000 Du        
  22829 ****        -0.5000  -3.2500  14.2500 Du        
  22830 ****        -0.5000  -3.2500  14.7500 Du        
  22831 ****        -0.5000   5.7500  19.0000 Du        
  22832 ****        -0.5000   5.7500  19.2500 Du        
  22833 ****        -0.5000   6.0000  18.7500 Du        
  22834 ****        -0.5000   6.0000  19.0000 Du        
  22835 ****        -0.5000   6.0000  19.2500 Du        
  22836 ****        -0.5000   6.0000  19.5000 Du        
  22837 ****        -0.5000   6.0000  19.7500 Du        
  22838 ****        -0.5000   6.2500  18.5000 Du        
  22839 ****        -0.5000   6.2500  18.7500 Du        
  22840 ****        -0.5000   6.2500  19.0000 Du        
  22841 ****        -0.5000   6.2500  19.2500 Du        
  22842 ****        -0.5000   6.2500  19.5000 Du        
  22843 ****        -0.5000   6.2500  19.7500 Du        
  22844 ****        -0.5000   6.2500  20.0000 Du        
  22845 ****        -0.5000   6.5000  18.5000 Du        
  22846 ****        -0.5000   6.5000  18.7500 Du        
  22847 ****        -0.5000   6.5000  19.0000 Du        
  22848 ****        -0.5000   6.5000  19.2500 Du        
  22849 ****        -0.5000   6.5000  19.5000 Du        
  22850 ****        -0.5000   6.5000  19.7500 Du        
  22851 ****        -0.5000   6.5000  20.0000 Du        
  22852 ****        -0.5000   6.7500  18.2500 Du        
  22853 ****        -0.5000   6.7500  18.5000 Du        
  22854 ****        -0.5000   6.7500  18.7500 Du        
  22855 ****        -0.5000   6.7500  19.0000 Du        
  22856 ****        -0.5000   6.7500  19.2500 Du        
  22857 ****        -0.5000   6.7500  19.5000 Du        
  22858 ****        -0.5000   6.7500  19.7500 Du        
  22859 ****        -0.5000   7.0000  18.2500 Du        
  22860 ****        -0.5000   7.0000  18.5000 Du        
  22861 ****        -0.5000   7.0000  18.7500 Du        
  22862 ****        -0.5000   7.0000  19.0000 Du        
  22863 ****        -0.5000   7.2500  18.0000 Du        
  22864 ****        -0.5000   7.2500  18.2500 Du        
  22865 ****        -0.5000   7.2500  18.5000 Du        
  22866 ****        -0.2500 -16.7500  32.2500 Du        
  22867 ****        -0.2500  -5.0000  15.0000 Du        
  22868 ****        -0.2500  -5.0000  15.2500 Du        
  22869 ****        -0.2500  -5.0000  15.5000 Du        
  22870 ****        -0.2500  -5.0000  15.7500 Du        
  22871 ****        -0.2500  -4.7500  14.7500 Du        
  22872 ****        -0.2500  -4.7500  15.0000 Du        
  22873 ****        -0.2500  -4.7500  15.2500 Du        
  22874 ****        -0.2500  -4.7500  15.5000 Du        
  22875 ****        -0.2500  -4.7500  15.7500 Du        
  22876 ****        -0.2500  -4.5000  14.0000 Du        
  22877 ****        -0.2500  -4.5000  14.2500 Du        
  22878 ****        -0.2500  -4.5000  14.5000 Du        
  22879 ****        -0.2500  -4.5000  14.7500 Du        
  22880 ****        -0.2500  -4.5000  15.0000 Du        
  22881 ****        -0.2500  -4.5000  15.2500 Du        
  22882 ****        -0.2500  -4.5000  15.5000 Du        
  22883 ****        -0.2500  -4.5000  15.7500 Du        
  22884 ****        -0.2500  -4.2500  13.7500 Du        
  22885 ****        -0.2500  -4.2500  14.0000 Du        
  22886 ****        -0.2500  -4.2500  14.2500 Du        
  22887 ****        -0.2500  -4.2500  14.5000 Du        
  22888 ****        -0.2500  -4.2500  14.7500 Du        
  22889 ****        -0.2500  -4.2500  15.0000 Du        
  22890 ****        -0.2500  -4.2500  15.2500 Du        
  22891 ****        -0.2500  -4.2500  15.5000 Du        
  22892 ****        -0.2500  -4.2500  15.7500 Du        
  22893 ****        -0.2500  -4.0000  13.0000 Du        
  22894 ****        -0.2500  -4.0000  13.2500 Du        
  22895 ****        -0.2500  -4.0000  13.5000 Du        
  22896 ****        -0.2500  -4.0000  13.7500 Du        
  22897 ****        -0.2500  -4.0000  14.0000 Du        
  22898 ****        -0.2500  -4.0000  14.2500 Du        
  22899 ****        -0.2500  -4.0000  14.5000 Du        
  22900 ****        -0.2500  -4.0000  14.7500 Du        
  22901 ****        -0.2500  -4.0000  15.0000 Du        
  22902 ****        -0.2500  -4.0000  15.2500 Du        
  22903 ****        -0.2500  -4.0000  15.5000 Du        
  22904 ****        -0.2500  -4.0000  15.7500 Du        
  22905 ****        -0.2500  -3.7500  12.7500 Du        
  22906 ****        -0.2500  -3.7500  13.0000 Du        
  22907 ****        -0.2500  -3.7500  13.2500 Du        
  22908 ****        -0.2500  -3.7500  13.5000 Du        
  22909 ****        -0.2500  -3.7500  13.7500 Du        
  22910 ****        -0.2500  -3.7500  14.0000 Du        
  22911 ****        -0.2500  -3.7500  14.2500 Du        
  22912 ****        -0.2500  -3.7500  14.5000 Du        
  22913 ****        -0.2500  -3.7500  14.7500 Du        
  22914 ****        -0.2500  -3.7500  15.0000 Du        
  22915 ****        -0.2500  -3.7500  15.2500 Du        
  22916 ****        -0.2500  -3.7500  15.5000 Du        
  22917 ****        -0.2500  -3.7500  15.7500 Du        
  22918 ****        -0.2500  -3.5000   9.0000 Du        
  22919 ****        -0.2500  -3.5000  13.0000 Du        
  22920 ****        -0.2500  -3.5000  13.2500 Du        
  22921 ****        -0.2500  -3.5000  13.5000 Du        
  22922 ****        -0.2500  -3.5000  13.7500 Du        
  22923 ****        -0.2500  -3.5000  14.0000 Du        
  22924 ****        -0.2500  -3.5000  14.2500 Du        
  22925 ****        -0.2500  -3.5000  14.5000 Du        
  22926 ****        -0.2500  -3.5000  14.7500 Du        
  22927 ****        -0.2500  -3.5000  15.0000 Du        
  22928 ****        -0.2500  -3.5000  15.2500 Du        
  22929 ****        -0.2500  -3.2500   9.0000 Du        
  22930 ****        -0.2500  -3.2500   9.2500 Du        
  22931 ****        -0.2500  -3.2500  13.2500 Du        
  22932 ****        -0.2500  -3.2500  13.5000 Du        
  22933 ****        -0.2500  -3.2500  13.7500 Du        
  22934 ****        -0.2500  -3.2500  14.0000 Du        
  22935 ****        -0.2500  -3.2500  14.2500 Du        
  22936 ****        -0.2500  -3.2500  14.7500 Du        
  22937 ****        -0.2500  -3.2500  15.0000 Du        
  22938 ****        -0.2500  -3.2500  15.2500 Du        
  22939 ****        -0.2500  -3.0000   9.0000 Du        
  22940 ****        -0.2500  -3.0000   9.2500 Du        
  22941 ****        -0.2500  -3.0000  14.0000 Du        
  22942 ****        -0.2500  -3.0000  14.2500 Du        
  22943 ****        -0.2500   5.5000  19.0000 Du        
  22944 ****        -0.2500   5.7500  18.7500 Du        
  22945 ****        -0.2500   5.7500  19.0000 Du        
  22946 ****        -0.2500   5.7500  19.2500 Du        
  22947 ****        -0.2500   5.7500  19.5000 Du        
  22948 ****        -0.2500   5.7500  19.7500 Du        
  22949 ****        -0.2500   5.7500  20.0000 Du        
  22950 ****        -0.2500   6.0000  18.5000 Du        
  22951 ****        -0.2500   6.0000  18.7500 Du        
  22952 ****        -0.2500   6.0000  19.0000 Du        
  22953 ****        -0.2500   6.0000  19.2500 Du        
  22954 ****        -0.2500   6.0000  19.5000 Du        
  22955 ****        -0.2500   6.0000  19.7500 Du        
  22956 ****        -0.2500   6.0000  20.0000 Du        
  22957 ****        -0.2500   6.2500  18.2500 Du        
  22958 ****        -0.2500   6.2500  18.5000 Du        
  22959 ****        -0.2500   6.2500  18.7500 Du        
  22960 ****        -0.2500   6.2500  19.0000 Du        
  22961 ****        -0.2500   6.2500  19.2500 Du        
  22962 ****        -0.2500   6.2500  19.5000 Du        
  22963 ****        -0.2500   6.2500  19.7500 Du        
  22964 ****        -0.2500   6.2500  20.0000 Du        
  22965 ****        -0.2500   6.2500  20.2500 Du        
  22966 ****        -0.2500   6.5000  18.2500 Du        
  22967 ****        -0.2500   6.5000  18.5000 Du        
  22968 ****        -0.2500   6.5000  18.7500 Du        
  22969 ****        -0.2500   6.5000  19.0000 Du        
  22970 ****        -0.2500   6.5000  19.2500 Du        
  22971 ****        -0.2500   6.5000  19.5000 Du        
  22972 ****        -0.2500   6.5000  19.7500 Du        
  22973 ****        -0.2500   6.5000  20.0000 Du        
  22974 ****        -0.2500   6.5000  20.2500 Du        
  22975 ****        -0.2500   6.7500  18.0000 Du        
  22976 ****        -0.2500   6.7500  18.2500 Du        
  22977 ****        -0.2500   6.7500  18.5000 Du        
  22978 ****        -0.2500   6.7500  18.7500 Du        
  22979 ****        -0.2500   6.7500  19.0000 Du        
  22980 ****        -0.2500   6.7500  19.2500 Du        
  22981 ****        -0.2500   6.7500  19.5000 Du        
  22982 ****        -0.2500   6.7500  19.7500 Du        
  22983 ****        -0.2500   6.7500  20.0000 Du        
  22984 ****        -0.2500   6.7500  20.2500 Du        
  22985 ****        -0.2500   7.0000  18.0000 Du        
  22986 ****        -0.2500   7.0000  18.2500 Du        
  22987 ****        -0.2500   7.0000  18.5000 Du        
  22988 ****        -0.2500   7.0000  18.7500 Du        
  22989 ****        -0.2500   7.0000  19.0000 Du        
  22990 ****        -0.2500   7.0000  19.2500 Du        
  22991 ****        -0.2500   7.0000  19.5000 Du        
  22992 ****        -0.2500   7.2500  17.7500 Du        
  22993 ****        -0.2500   7.2500  18.0000 Du        
  22994 ****        -0.2500   7.2500  18.2500 Du        
  22995 ****        -0.2500   7.2500  18.5000 Du        
  22996 ****        -0.2500   7.2500  18.7500 Du        
  22997 ****        -0.2500   7.2500  19.0000 Du        
  22998 ****        -0.2500   7.5000  17.7500 Du        
  22999 ****        -0.2500   7.5000  18.0000 Du        
  23000 ****        -0.2500   7.5000  18.2500 Du        
  23001 ****        -0.2500   7.5000  18.5000 Du        
  23002 ****        -0.2500   7.7500  17.7500 Du        
  23003 ****        -0.2500   7.7500  18.0000 Du        
  23004 ****        -0.2500   7.7500  18.2500 Du        
  23005 ****        -0.2500   8.0000  17.7500 Du        
  23006 ****         0.0000 -17.2500  31.2500 Du        
  23007 ****         0.0000 -17.2500  31.5000 Du        
  23008 ****         0.0000 -17.2500  31.7500 Du        
  23009 ****         0.0000 -17.2500  32.0000 Du        
  23010 ****         0.0000 -17.0000  31.2500 Du        
  23011 ****         0.0000 -17.0000  31.5000 Du        
  23012 ****         0.0000 -17.0000  31.7500 Du        
  23013 ****         0.0000 -17.0000  32.0000 Du        
  23014 ****         0.0000 -17.0000  32.2500 Du        
  23015 ****         0.0000 -16.7500  31.7500 Du        
  23016 ****         0.0000 -16.7500  32.0000 Du        
  23017 ****         0.0000 -16.7500  32.2500 Du        
  23018 ****         0.0000 -16.5000  31.7500 Du        
  23019 ****         0.0000 -16.5000  32.0000 Du        
  23020 ****         0.0000 -16.2500  31.7500 Du        
  23021 ****         0.0000 -16.2500  32.0000 Du        
  23022 ****         0.0000 -16.0000  31.7500 Du        
  23023 ****         0.0000 -16.0000  32.0000 Du        
  23024 ****         0.0000  -5.0000  15.0000 Du        
  23025 ****         0.0000  -5.0000  15.2500 Du        
  23026 ****         0.0000  -5.0000  15.5000 Du        
  23027 ****         0.0000  -5.0000  15.7500 Du        
  23028 ****         0.0000  -4.7500  14.7500 Du        
  23029 ****         0.0000  -4.7500  15.0000 Du        
  23030 ****         0.0000  -4.7500  15.2500 Du        
  23031 ****         0.0000  -4.7500  15.5000 Du        
  23032 ****         0.0000  -4.7500  15.7500 Du        
  23033 ****         0.0000  -4.5000  14.2500 Du        
  23034 ****         0.0000  -4.5000  14.5000 Du        
  23035 ****         0.0000  -4.5000  14.7500 Du        
  23036 ****         0.0000  -4.5000  15.0000 Du        
  23037 ****         0.0000  -4.5000  15.2500 Du        
  23038 ****         0.0000  -4.5000  15.5000 Du        
  23039 ****         0.0000  -4.5000  15.7500 Du        
  23040 ****         0.0000  -4.2500  13.7500 Du        
  23041 ****         0.0000  -4.2500  14.0000 Du        
  23042 ****         0.0000  -4.2500  14.2500 Du        
  23043 ****         0.0000  -4.2500  14.5000 Du        
  23044 ****         0.0000  -4.2500  14.7500 Du        
  23045 ****         0.0000  -4.2500  15.0000 Du        
  23046 ****         0.0000  -4.2500  15.2500 Du        
  23047 ****         0.0000  -4.2500  15.5000 Du        
  23048 ****         0.0000  -4.2500  15.7500 Du        
  23049 ****         0.0000  -4.2500  16.0000 Du        
  23050 ****         0.0000  -4.0000  13.2500 Du        
  23051 ****         0.0000  -4.0000  13.5000 Du        
  23052 ****         0.0000  -4.0000  13.7500 Du        
  23053 ****         0.0000  -4.0000  14.0000 Du        
  23054 ****         0.0000  -4.0000  14.2500 Du        
  23055 ****         0.0000  -4.0000  14.5000 Du        
  23056 ****         0.0000  -4.0000  14.7500 Du        
  23057 ****         0.0000  -4.0000  15.0000 Du        
  23058 ****         0.0000  -4.0000  15.2500 Du        
  23059 ****         0.0000  -4.0000  15.5000 Du        
  23060 ****         0.0000  -4.0000  15.7500 Du        
  23061 ****         0.0000  -4.0000  16.0000 Du        
  23062 ****         0.0000  -3.7500  12.5000 Du        
  23063 ****         0.0000  -3.7500  12.7500 Du        
  23064 ****         0.0000  -3.7500  13.0000 Du        
  23065 ****         0.0000  -3.7500  13.2500 Du        
  23066 ****         0.0000  -3.7500  13.5000 Du        
  23067 ****         0.0000  -3.7500  13.7500 Du        
  23068 ****         0.0000  -3.7500  14.0000 Du        
  23069 ****         0.0000  -3.7500  14.2500 Du        
  23070 ****         0.0000  -3.7500  14.5000 Du        
  23071 ****         0.0000  -3.7500  14.7500 Du        
  23072 ****         0.0000  -3.7500  15.0000 Du        
  23073 ****         0.0000  -3.7500  15.2500 Du        
  23074 ****         0.0000  -3.7500  15.5000 Du        
  23075 ****         0.0000  -3.7500  15.7500 Du        
  23076 ****         0.0000  -3.5000   9.0000 Du        
  23077 ****         0.0000  -3.5000   9.2500 Du        
  23078 ****         0.0000  -3.5000  12.7500 Du        
  23079 ****         0.0000  -3.5000  13.0000 Du        
  23080 ****         0.0000  -3.5000  13.2500 Du        
  23081 ****         0.0000  -3.5000  13.5000 Du        
  23082 ****         0.0000  -3.5000  13.7500 Du        
  23083 ****         0.0000  -3.5000  14.0000 Du        
  23084 ****         0.0000  -3.5000  14.2500 Du        
  23085 ****         0.0000  -3.5000  14.5000 Du        
  23086 ****         0.0000  -3.5000  14.7500 Du        
  23087 ****         0.0000  -3.5000  15.0000 Du        
  23088 ****         0.0000  -3.5000  15.2500 Du        
  23089 ****         0.0000  -3.2500   9.0000 Du        
  23090 ****         0.0000  -3.2500   9.2500 Du        
  23091 ****         0.0000  -3.2500   9.5000 Du        
  23092 ****         0.0000  -3.2500   9.7500 Du        
  23093 ****         0.0000  -3.2500  10.0000 Du        
  23094 ****         0.0000  -3.2500  13.0000 Du        
  23095 ****         0.0000  -3.2500  13.2500 Du        
  23096 ****         0.0000  -3.2500  13.7500 Du        
  23097 ****         0.0000  -3.2500  14.0000 Du        
  23098 ****         0.0000  -3.2500  14.7500 Du        
  23099 ****         0.0000  -3.2500  15.0000 Du        
  23100 ****         0.0000  -3.0000   9.0000 Du        
  23101 ****         0.0000  -3.0000   9.2500 Du        
  23102 ****         0.0000  -3.0000   9.5000 Du        
  23103 ****         0.0000  -3.0000   9.7500 Du        
  23104 ****         0.0000  -3.0000  13.2500 Du        
  23105 ****         0.0000  -3.0000  14.0000 Du        
  23106 ****         0.0000  -2.7500   9.0000 Du        
  23107 ****         0.0000  -2.7500   9.2500 Du        
  23108 ****         0.0000   5.2500  19.0000 Du        
  23109 ****         0.0000   5.5000  18.5000 Du        
  23110 ****         0.0000   5.5000  18.7500 Du        
  23111 ****         0.0000   5.5000  19.0000 Du        
  23112 ****         0.0000   5.5000  19.2500 Du        
  23113 ****         0.0000   5.5000  19.5000 Du        
  23114 ****         0.0000   5.7500  18.5000 Du        
  23115 ****         0.0000   5.7500  18.7500 Du        
  23116 ****         0.0000   5.7500  19.0000 Du        
  23117 ****         0.0000   5.7500  19.2500 Du        
  23118 ****         0.0000   5.7500  19.5000 Du        
  23119 ****         0.0000   5.7500  19.7500 Du        
  23120 ****         0.0000   5.7500  20.0000 Du        
  23121 ****         0.0000   6.0000  18.2500 Du        
  23122 ****         0.0000   6.0000  18.5000 Du        
  23123 ****         0.0000   6.0000  18.7500 Du        
  23124 ****         0.0000   6.0000  19.0000 Du        
  23125 ****         0.0000   6.0000  19.2500 Du        
  23126 ****         0.0000   6.0000  19.5000 Du        
  23127 ****         0.0000   6.0000  19.7500 Du        
  23128 ****         0.0000   6.0000  20.0000 Du        
  23129 ****         0.0000   6.0000  20.2500 Du        
  23130 ****         0.0000   6.2500  18.2500 Du        
  23131 ****         0.0000   6.2500  18.5000 Du        
  23132 ****         0.0000   6.2500  18.7500 Du        
  23133 ****         0.0000   6.2500  19.0000 Du        
  23134 ****         0.0000   6.2500  19.2500 Du        
  23135 ****         0.0000   6.2500  19.5000 Du        
  23136 ****         0.0000   6.2500  19.7500 Du        
  23137 ****         0.0000   6.2500  20.0000 Du        
  23138 ****         0.0000   6.2500  20.2500 Du        
  23139 ****         0.0000   6.5000  18.0000 Du        
  23140 ****         0.0000   6.5000  18.2500 Du        
  23141 ****         0.0000   6.5000  18.5000 Du        
  23142 ****         0.0000   6.5000  18.7500 Du        
  23143 ****         0.0000   6.5000  19.0000 Du        
  23144 ****         0.0000   6.5000  19.2500 Du        
  23145 ****         0.0000   6.5000  19.5000 Du        
  23146 ****         0.0000   6.5000  19.7500 Du        
  23147 ****         0.0000   6.5000  20.0000 Du        
  23148 ****         0.0000   6.5000  20.2500 Du        
  23149 ****         0.0000   6.5000  20.5000 Du        
  23150 ****         0.0000   6.7500  18.0000 Du        
  23151 ****         0.0000   6.7500  18.2500 Du        
  23152 ****         0.0000   6.7500  18.5000 Du        
  23153 ****         0.0000   6.7500  18.7500 Du        
  23154 ****         0.0000   6.7500  19.0000 Du        
  23155 ****         0.0000   6.7500  19.2500 Du        
  23156 ****         0.0000   6.7500  19.5000 Du        
  23157 ****         0.0000   6.7500  19.7500 Du        
  23158 ****         0.0000   6.7500  20.0000 Du        
  23159 ****         0.0000   6.7500  20.2500 Du        
  23160 ****         0.0000   7.0000  17.7500 Du        
  23161 ****         0.0000   7.0000  18.0000 Du        
  23162 ****         0.0000   7.0000  18.2500 Du        
  23163 ****         0.0000   7.0000  18.5000 Du        
  23164 ****         0.0000   7.0000  18.7500 Du        
  23165 ****         0.0000   7.0000  19.0000 Du        
  23166 ****         0.0000   7.0000  19.2500 Du        
  23167 ****         0.0000   7.0000  19.5000 Du        
  23168 ****         0.0000   7.0000  19.7500 Du        
  23169 ****         0.0000   7.2500  17.7500 Du        
  23170 ****         0.0000   7.2500  18.0000 Du        
  23171 ****         0.0000   7.2500  18.2500 Du        
  23172 ****         0.0000   7.2500  18.5000 Du        
  23173 ****         0.0000   7.2500  18.7500 Du        
  23174 ****         0.0000   7.2500  19.0000 Du        
  23175 ****         0.0000   7.2500  19.2500 Du        
  23176 ****         0.0000   7.5000  17.5000 Du        
  23177 ****         0.0000   7.5000  17.7500 Du        
  23178 ****         0.0000   7.5000  18.0000 Du        
  23179 ****         0.0000   7.5000  18.2500 Du        
  23180 ****         0.0000   7.5000  18.5000 Du        
  23181 ****         0.0000   7.5000  18.7500 Du        
  23182 ****         0.0000   7.7500  17.5000 Du        
  23183 ****         0.0000   7.7500  17.7500 Du        
  23184 ****         0.0000   7.7500  18.0000 Du        
  23185 ****         0.0000   7.7500  18.2500 Du        
  23186 ****         0.0000   8.0000  17.5000 Du        
  23187 ****         0.0000   8.0000  17.7500 Du        
  23188 ****         0.0000   8.0000  18.0000 Du        
  23189 ****         0.0000   8.0000  18.2500 Du        
  23190 ****         0.0000   8.2500  17.5000 Du        
  23191 ****         0.0000   8.2500  17.7500 Du        
  23192 ****         0.2500 -17.2500  30.7500 Du        
  23193 ****         0.2500 -17.2500  31.0000 Du        
  23194 ****         0.2500 -17.2500  31.2500 Du        
  23195 ****         0.2500 -17.2500  31.5000 Du        
  23196 ****         0.2500 -17.2500  31.7500 Du        
  23197 ****         0.2500 -17.2500  32.0000 Du        
  23198 ****         0.2500 -17.0000  30.7500 Du        
  23199 ****         0.2500 -17.0000  31.0000 Du        
  23200 ****         0.2500 -17.0000  31.2500 Du        
  23201 ****         0.2500 -17.0000  31.5000 Du        
  23202 ****         0.2500 -17.0000  31.7500 Du        
  23203 ****         0.2500 -17.0000  32.0000 Du        
  23204 ****         0.2500 -17.0000  32.2500 Du        
  23205 ****         0.2500 -16.7500  31.0000 Du        
  23206 ****         0.2500 -16.7500  31.2500 Du        
  23207 ****         0.2500 -16.7500  31.5000 Du        
  23208 ****         0.2500 -16.7500  31.7500 Du        
  23209 ****         0.2500 -16.7500  32.0000 Du        
  23210 ****         0.2500 -16.7500  32.2500 Du        
  23211 ****         0.2500 -16.5000  31.2500 Du        
  23212 ****         0.2500 -16.5000  31.5000 Du        
  23213 ****         0.2500 -16.5000  31.7500 Du        
  23214 ****         0.2500 -16.5000  32.0000 Du        
  23215 ****         0.2500 -16.2500  31.5000 Du        
  23216 ****         0.2500 -16.2500  31.7500 Du        
  23217 ****         0.2500 -16.2500  32.0000 Du        
  23218 ****         0.2500  -6.7500  24.2500 Du        
  23219 ****         0.2500  -6.5000  24.2500 Du        
  23220 ****         0.2500  -6.2500  24.2500 Du        
  23221 ****         0.2500  -5.0000  15.2500 Du        
  23222 ****         0.2500  -5.0000  15.5000 Du        
  23223 ****         0.2500  -5.0000  15.7500 Du        
  23224 ****         0.2500  -4.7500  14.7500 Du        
  23225 ****         0.2500  -4.7500  15.0000 Du        
  23226 ****         0.2500  -4.7500  15.2500 Du        
  23227 ****         0.2500  -4.7500  15.5000 Du        
  23228 ****         0.2500  -4.7500  15.7500 Du        
  23229 ****         0.2500  -4.5000  14.7500 Du        
  23230 ****         0.2500  -4.5000  15.0000 Du        
  23231 ****         0.2500  -4.5000  15.2500 Du        
  23232 ****         0.2500  -4.5000  15.5000 Du        
  23233 ****         0.2500  -4.5000  15.7500 Du        
  23234 ****         0.2500  -4.2500  14.0000 Du        
  23235 ****         0.2500  -4.2500  14.2500 Du        
  23236 ****         0.2500  -4.2500  14.5000 Du        
  23237 ****         0.2500  -4.2500  14.7500 Du        
  23238 ****         0.2500  -4.2500  15.0000 Du        
  23239 ****         0.2500  -4.2500  15.2500 Du        
  23240 ****         0.2500  -4.2500  15.5000 Du        
  23241 ****         0.2500  -4.2500  15.7500 Du        
  23242 ****         0.2500  -4.0000  13.7500 Du        
  23243 ****         0.2500  -4.0000  14.0000 Du        
  23244 ****         0.2500  -4.0000  14.2500 Du        
  23245 ****         0.2500  -4.0000  14.5000 Du        
  23246 ****         0.2500  -4.0000  14.7500 Du        
  23247 ****         0.2500  -4.0000  15.0000 Du        
  23248 ****         0.2500  -4.0000  15.2500 Du        
  23249 ****         0.2500  -4.0000  15.5000 Du        
  23250 ****         0.2500  -4.0000  15.7500 Du        
  23251 ****         0.2500  -4.0000  16.0000 Du        
  23252 ****         0.2500  -3.7500  13.0000 Du        
  23253 ****         0.2500  -3.7500  13.2500 Du        
  23254 ****         0.2500  -3.7500  13.5000 Du        
  23255 ****         0.2500  -3.7500  13.7500 Du        
  23256 ****         0.2500  -3.7500  14.0000 Du        
  23257 ****         0.2500  -3.7500  14.2500 Du        
  23258 ****         0.2500  -3.7500  14.5000 Du        
  23259 ****         0.2500  -3.7500  14.7500 Du        
  23260 ****         0.2500  -3.7500  15.0000 Du        
  23261 ****         0.2500  -3.7500  15.2500 Du        
  23262 ****         0.2500  -3.7500  15.5000 Du        
  23263 ****         0.2500  -3.7500  15.7500 Du        
  23264 ****         0.2500  -3.7500  16.0000 Du        
  23265 ****         0.2500  -3.5000   9.0000 Du        
  23266 ****         0.2500  -3.5000   9.7500 Du        
  23267 ****         0.2500  -3.5000  10.0000 Du        
  23268 ****         0.2500  -3.5000  10.2500 Du        
  23269 ****         0.2500  -3.5000  10.5000 Du        
  23270 ****         0.2500  -3.5000  14.5000 Du        
  23271 ****         0.2500  -3.2500   9.0000 Du        
  23272 ****         0.2500  -3.2500   9.2500 Du        
  23273 ****         0.2500  -3.2500   9.5000 Du        
  23274 ****         0.2500  -3.2500   9.7500 Du        
  23275 ****         0.2500  -3.2500  10.0000 Du        
  23276 ****         0.2500  -3.2500  10.2500 Du        
  23277 ****         0.2500  -3.2500  10.5000 Du        
  23278 ****         0.2500  -3.2500  13.0000 Du        
  23279 ****         0.2500  -3.0000   9.0000 Du        
  23280 ****         0.2500  -3.0000   9.2500 Du        
  23281 ****         0.2500  -3.0000   9.5000 Du        
  23282 ****         0.2500  -3.0000   9.7500 Du        
  23283 ****         0.2500  -3.0000  10.0000 Du        
  23284 ****         0.2500  -3.0000  10.2500 Du        
  23285 ****         0.2500  -2.7500   9.0000 Du        
  23286 ****         0.2500   5.5000  18.5000 Du        
  23287 ****         0.2500   5.5000  18.7500 Du        
  23288 ****         0.2500   5.5000  19.0000 Du        
  23289 ****         0.2500   5.5000  19.2500 Du        
  23290 ****         0.2500   5.7500  18.2500 Du        
  23291 ****         0.2500   5.7500  18.5000 Du        
  23292 ****         0.2500   5.7500  18.7500 Du        
  23293 ****         0.2500   5.7500  19.0000 Du        
  23294 ****         0.2500   5.7500  19.2500 Du        
  23295 ****         0.2500   5.7500  19.7500 Du        
  23296 ****         0.2500   6.0000  18.2500 Du        
  23297 ****         0.2500   6.0000  18.5000 Du        
  23298 ****         0.2500   6.0000  18.7500 Du        
  23299 ****         0.2500   6.0000  19.0000 Du        
  23300 ****         0.2500   6.0000  19.2500 Du        
  23301 ****         0.2500   6.0000  19.5000 Du        
  23302 ****         0.2500   6.0000  19.7500 Du        
  23303 ****         0.2500   6.0000  20.0000 Du        
  23304 ****         0.2500   6.0000  20.2500 Du        
  23305 ****         0.2500   6.2500  18.0000 Du        
  23306 ****         0.2500   6.2500  18.2500 Du        
  23307 ****         0.2500   6.2500  18.5000 Du        
  23308 ****         0.2500   6.2500  18.7500 Du        
  23309 ****         0.2500   6.2500  19.0000 Du        
  23310 ****         0.2500   6.2500  19.2500 Du        
  23311 ****         0.2500   6.2500  19.5000 Du        
  23312 ****         0.2500   6.2500  19.7500 Du        
  23313 ****         0.2500   6.2500  20.0000 Du        
  23314 ****         0.2500   6.2500  20.2500 Du        
  23315 ****         0.2500   6.5000  18.0000 Du        
  23316 ****         0.2500   6.5000  18.2500 Du        
  23317 ****         0.2500   6.5000  18.5000 Du        
  23318 ****         0.2500   6.5000  18.7500 Du        
  23319 ****         0.2500   6.5000  19.0000 Du        
  23320 ****         0.2500   6.5000  19.2500 Du        
  23321 ****         0.2500   6.5000  19.5000 Du        
  23322 ****         0.2500   6.5000  19.7500 Du        
  23323 ****         0.2500   6.5000  20.0000 Du        
  23324 ****         0.2500   6.5000  20.2500 Du        
  23325 ****         0.2500   6.7500  17.7500 Du        
  23326 ****         0.2500   6.7500  18.0000 Du        
  23327 ****         0.2500   6.7500  18.2500 Du        
  23328 ****         0.2500   6.7500  18.5000 Du        
  23329 ****         0.2500   6.7500  18.7500 Du        
  23330 ****         0.2500   6.7500  19.0000 Du        
  23331 ****         0.2500   6.7500  19.2500 Du        
  23332 ****         0.2500   6.7500  19.5000 Du        
  23333 ****         0.2500   6.7500  19.7500 Du        
  23334 ****         0.2500   6.7500  20.0000 Du        
  23335 ****         0.2500   6.7500  20.2500 Du        
  23336 ****         0.2500   7.0000  17.7500 Du        
  23337 ****         0.2500   7.0000  18.0000 Du        
  23338 ****         0.2500   7.0000  18.2500 Du        
  23339 ****         0.2500   7.0000  18.5000 Du        
  23340 ****         0.2500   7.0000  18.7500 Du        
  23341 ****         0.2500   7.0000  19.0000 Du        
  23342 ****         0.2500   7.0000  19.2500 Du        
  23343 ****         0.2500   7.0000  19.5000 Du        
  23344 ****         0.2500   7.2500  17.7500 Du        
  23345 ****         0.2500   7.2500  18.0000 Du        
  23346 ****         0.2500   7.2500  18.2500 Du        
  23347 ****         0.2500   7.2500  18.5000 Du        
  23348 ****         0.2500   7.2500  18.7500 Du        
  23349 ****         0.2500   7.2500  19.0000 Du        
  23350 ****         0.2500   7.5000  17.5000 Du        
  23351 ****         0.2500   7.5000  17.7500 Du        
  23352 ****         0.2500   7.5000  18.0000 Du        
  23353 ****         0.2500   7.5000  18.2500 Du        
  23354 ****         0.2500   7.5000  18.5000 Du        
  23355 ****         0.2500   7.5000  18.7500 Du        
  23356 ****         0.2500   7.5000  22.7500 Du        
  23357 ****         0.2500   7.5000  23.0000 Du        
  23358 ****         0.2500   7.7500  17.5000 Du        
  23359 ****         0.2500   7.7500  17.7500 Du        
  23360 ****         0.2500   7.7500  18.0000 Du        
  23361 ****         0.2500   7.7500  18.2500 Du        
  23362 ****         0.2500   7.7500  18.5000 Du        
  23363 ****         0.2500   8.0000  17.5000 Du        
  23364 ****         0.2500   8.0000  17.7500 Du        
  23365 ****         0.2500   8.0000  18.0000 Du        
  23366 ****         0.2500   8.0000  18.2500 Du        
  23367 ****         0.2500   8.2500  17.5000 Du        
  23368 ****         0.2500   8.2500  17.7500 Du        
  23369 ****         0.2500   8.2500  18.0000 Du        
  23370 ****         0.2500   8.5000  17.5000 Du        
  23371 ****         0.5000 -17.2500  30.0000 Du        
  23372 ****         0.5000 -17.2500  30.2500 Du        
  23373 ****         0.5000 -17.2500  30.5000 Du        
  23374 ****         0.5000 -17.2500  30.7500 Du        
  23375 ****         0.5000 -17.2500  31.0000 Du        
  23376 ****         0.5000 -17.2500  31.2500 Du        
  23377 ****         0.5000 -17.2500  31.5000 Du        
  23378 ****         0.5000 -17.2500  31.7500 Du        
  23379 ****         0.5000 -17.2500  32.0000 Du        
  23380 ****         0.5000 -17.0000  30.2500 Du        
  23381 ****         0.5000 -17.0000  30.5000 Du        
  23382 ****         0.5000 -17.0000  30.7500 Du        
  23383 ****         0.5000 -17.0000  31.0000 Du        
  23384 ****         0.5000 -17.0000  31.2500 Du        
  23385 ****         0.5000 -17.0000  31.5000 Du        
  23386 ****         0.5000 -17.0000  31.7500 Du        
  23387 ****         0.5000 -17.0000  32.0000 Du        
  23388 ****         0.5000 -16.7500  30.7500 Du        
  23389 ****         0.5000 -16.7500  31.0000 Du        
  23390 ****         0.5000 -16.7500  31.2500 Du        
  23391 ****         0.5000 -16.7500  31.5000 Du        
  23392 ****         0.5000 -16.7500  31.7500 Du        
  23393 ****         0.5000 -16.5000  31.0000 Du        
  23394 ****         0.5000 -16.5000  31.2500 Du        
  23395 ****         0.5000 -16.2500  31.2500 Du        
  23396 ****         0.5000  -6.7500  24.0000 Du        
  23397 ****         0.5000  -6.7500  24.2500 Du        
  23398 ****         0.5000  -6.7500  24.5000 Du        
  23399 ****         0.5000  -6.7500  24.7500 Du        
  23400 ****         0.5000  -6.5000  24.0000 Du        
  23401 ****         0.5000  -6.5000  24.2500 Du        
  23402 ****         0.5000  -6.5000  24.5000 Du        
  23403 ****         0.5000  -6.5000  24.7500 Du        
  23404 ****         0.5000  -6.2500  24.0000 Du        
  23405 ****         0.5000  -6.2500  24.2500 Du        
  23406 ****         0.5000  -6.2500  24.5000 Du        
  23407 ****         0.5000  -6.0000  24.2500 Du        
  23408 ****         0.5000  -4.7500  15.0000 Du        
  23409 ****         0.5000  -4.7500  15.2500 Du        
  23410 ****         0.5000  -4.7500  15.5000 Du        
  23411 ****         0.5000  -4.7500  15.7500 Du        
  23412 ****         0.5000  -4.5000  14.7500 Du        
  23413 ****         0.5000  -4.5000  15.0000 Du        
  23414 ****         0.5000  -4.5000  15.2500 Du        
  23415 ****         0.5000  -4.5000  15.5000 Du        
  23416 ****         0.5000  -4.5000  15.7500 Du        
  23417 ****         0.5000  -4.2500  14.5000 Du        
  23418 ****         0.5000  -4.2500  14.7500 Du        
  23419 ****         0.5000  -4.2500  15.0000 Du        
  23420 ****         0.5000  -4.2500  15.2500 Du        
  23421 ****         0.5000  -4.2500  15.5000 Du        
  23422 ****         0.5000  -4.2500  15.7500 Du        
  23423 ****         0.5000  -4.0000  14.2500 Du        
  23424 ****         0.5000  -4.0000  14.5000 Du        
  23425 ****         0.5000  -4.0000  14.7500 Du        
  23426 ****         0.5000  -4.0000  15.0000 Du        
  23427 ****         0.5000  -4.0000  15.2500 Du        
  23428 ****         0.5000  -4.0000  15.5000 Du        
  23429 ****         0.5000  -4.0000  15.7500 Du        
  23430 ****         0.5000  -3.7500  14.2500 Du        
  23431 ****         0.5000  -3.7500  14.5000 Du        
  23432 ****         0.5000  -3.7500  14.7500 Du        
  23433 ****         0.5000  -3.7500  15.0000 Du        
  23434 ****         0.5000  -3.7500  15.2500 Du        
  23435 ****         0.5000  -3.2500   9.0000 Du        
  23436 ****         0.5000  -3.2500   9.2500 Du        
  23437 ****         0.5000  -3.2500  10.0000 Du        
  23438 ****         0.5000  -3.2500  10.2500 Du        
  23439 ****         0.5000  -3.2500  10.5000 Du        
  23440 ****         0.5000  -3.2500  10.7500 Du        
  23441 ****         0.5000  -3.0000   9.0000 Du        
  23442 ****         0.5000  -3.0000  10.0000 Du        
  23443 ****         0.5000  -3.0000  10.2500 Du        
  23444 ****         0.5000   6.5000  18.0000 Du        
  23445 ****         0.5000   6.5000  18.2500 Du        
  23446 ****         0.5000   6.5000  18.7500 Du        
  23447 ****         0.5000   6.7500  17.7500 Du        
  23448 ****         0.5000   6.7500  18.0000 Du        
  23449 ****         0.5000   6.7500  18.2500 Du        
  23450 ****         0.5000   6.7500  18.5000 Du        
  23451 ****         0.5000   6.7500  18.7500 Du        
  23452 ****         0.5000   6.7500  19.0000 Du        
  23453 ****         0.5000   7.0000  17.7500 Du        
  23454 ****         0.5000   7.0000  18.0000 Du        
  23455 ****         0.5000   7.0000  18.2500 Du        
  23456 ****         0.5000   7.0000  18.5000 Du        
  23457 ****         0.5000   7.0000  18.7500 Du        
  23458 ****         0.5000   7.0000  19.0000 Du        
  23459 ****         0.5000   7.2500  17.5000 Du        
  23460 ****         0.5000   7.2500  17.7500 Du        
  23461 ****         0.5000   7.2500  18.0000 Du        
  23462 ****         0.5000   7.2500  18.2500 Du        
  23463 ****         0.5000   7.2500  18.5000 Du        
  23464 ****         0.5000   7.2500  18.7500 Du        
  23465 ****         0.5000   7.5000  17.5000 Du        
  23466 ****         0.5000   7.5000  17.7500 Du        
  23467 ****         0.5000   7.5000  18.0000 Du        
  23468 ****         0.5000   7.5000  18.2500 Du        
  23469 ****         0.5000   7.7500  17.5000 Du        
  23470 ****         0.5000   7.7500  17.7500 Du        
  23471 ****         0.5000   7.7500  18.0000 Du        
  23472 ****         0.5000   7.7500  18.2500 Du        
  23473 ****         0.5000   8.0000  17.2500 Du        
  23474 ****         0.5000   8.0000  17.5000 Du        
  23475 ****         0.5000   8.0000  17.7500 Du        
  23476 ****         0.5000   8.0000  18.0000 Du        
  23477 ****         0.5000   8.2500  17.5000 Du        
  23478 ****         0.5000   8.2500  17.7500 Du        
  23479 ****         0.5000   8.5000  27.2500 Du        
  23480 ****         0.5000   8.5000  27.5000 Du        
  23481 ****         0.5000   8.5000  27.7500 Du        
  23482 ****         0.5000   8.5000  28.0000 Du        
  23483 ****         0.5000   8.5000  28.2500 Du        
  23484 ****         0.5000   8.5000  28.5000 Du        
  23485 ****         0.5000   8.5000  28.7500 Du        
  23486 ****         0.5000   8.5000  29.0000 Du        
  23487 ****         0.5000   8.5000  29.2500 Du        
  23488 ****         0.5000   8.7500  27.0000 Du        
  23489 ****         0.5000   8.7500  27.2500 Du        
  23490 ****         0.5000   8.7500  27.5000 Du        
  23491 ****         0.5000   8.7500  27.7500 Du        
  23492 ****         0.5000   8.7500  28.0000 Du        
  23493 ****         0.5000   8.7500  28.2500 Du        
  23494 ****         0.5000   8.7500  28.5000 Du        
  23495 ****         0.5000   8.7500  28.7500 Du        
  23496 ****         0.5000   8.7500  29.0000 Du        
  23497 ****         0.5000   8.7500  29.2500 Du        
  23498 ****         0.5000   9.0000  27.0000 Du        
  23499 ****         0.5000   9.0000  27.2500 Du        
  23500 ****         0.5000   9.0000  27.5000 Du        
  23501 ****         0.5000   9.0000  27.7500 Du        
  23502 ****         0.5000   9.0000  28.0000 Du        
  23503 ****         0.5000   9.0000  28.2500 Du        
  23504 ****         0.7500 -17.2500  29.7500 Du        
  23505 ****         0.7500 -17.2500  30.0000 Du        
  23506 ****         0.7500 -17.2500  30.2500 Du        
  23507 ****         0.7500 -17.2500  30.5000 Du        
  23508 ****         0.7500 -17.2500  30.7500 Du        
  23509 ****         0.7500 -17.2500  31.0000 Du        
  23510 ****         0.7500 -17.2500  31.2500 Du        
  23511 ****         0.7500 -17.2500  31.5000 Du        
  23512 ****         0.7500 -17.2500  31.7500 Du        
  23513 ****         0.7500 -17.0000  29.7500 Du        
  23514 ****         0.7500 -17.0000  30.0000 Du        
  23515 ****         0.7500 -17.0000  30.2500 Du        
  23516 ****         0.7500 -17.0000  30.5000 Du        
  23517 ****         0.7500 -17.0000  30.7500 Du        
  23518 ****         0.7500 -17.0000  31.0000 Du        
  23519 ****         0.7500 -17.0000  31.2500 Du        
  23520 ****         0.7500 -17.0000  31.5000 Du        
  23521 ****         0.7500 -17.0000  31.7500 Du        
  23522 ****         0.7500 -17.0000  32.0000 Du        
  23523 ****         0.7500 -16.7500  30.0000 Du        
  23524 ****         0.7500 -16.7500  30.2500 Du        
  23525 ****         0.7500 -16.7500  30.5000 Du        
  23526 ****         0.7500 -16.7500  30.7500 Du        
  23527 ****         0.7500 -16.7500  31.0000 Du        
  23528 ****         0.7500 -16.7500  31.2500 Du        
  23529 ****         0.7500 -16.7500  31.5000 Du        
  23530 ****         0.7500 -16.7500  31.7500 Du        
  23531 ****         0.7500 -16.5000  30.5000 Du        
  23532 ****         0.7500 -16.5000  30.7500 Du        
  23533 ****         0.7500 -16.5000  31.0000 Du        
  23534 ****         0.7500 -16.5000  31.2500 Du        
  23535 ****         0.7500 -16.2500  30.7500 Du        
  23536 ****         0.7500 -16.2500  31.0000 Du        
  23537 ****         0.7500 -16.2500  31.2500 Du        
  23538 ****         0.7500 -16.0000  31.0000 Du        
  23539 ****         0.7500 -16.0000  31.2500 Du        
  23540 ****         0.7500  -7.0000  24.7500 Du        
  23541 ****         0.7500  -6.7500  24.0000 Du        
  23542 ****         0.7500  -6.7500  24.2500 Du        
  23543 ****         0.7500  -6.7500  24.5000 Du        
  23544 ****         0.7500  -6.7500  24.7500 Du        
  23545 ****         0.7500  -6.7500  25.0000 Du        
  23546 ****         0.7500  -6.5000  24.0000 Du        
  23547 ****         0.7500  -6.5000  24.2500 Du        
  23548 ****         0.7500  -6.5000  24.5000 Du        
  23549 ****         0.7500  -6.5000  24.7500 Du        
  23550 ****         0.7500  -6.5000  25.0000 Du        
  23551 ****         0.7500  -6.2500  24.0000 Du        
  23552 ****         0.7500  -6.2500  24.2500 Du        
  23553 ****         0.7500  -6.2500  24.5000 Du        
  23554 ****         0.7500  -6.0000  24.2500 Du        
  23555 ****         0.7500  -4.7500  15.2500 Du        
  23556 ****         0.7500  -4.7500  15.5000 Du        
  23557 ****         0.7500  -4.7500  15.7500 Du        
  23558 ****         0.7500  -4.5000  15.0000 Du        
  23559 ****         0.7500  -4.5000  15.2500 Du        
  23560 ****         0.7500  -4.5000  15.5000 Du        
  23561 ****         0.7500  -4.5000  15.7500 Du        
  23562 ****         0.7500  -4.2500  14.7500 Du        
  23563 ****         0.7500  -4.2500  15.0000 Du        
  23564 ****         0.7500  -4.2500  15.2500 Du        
  23565 ****         0.7500  -4.2500  15.5000 Du        
  23566 ****         0.7500  -4.2500  15.7500 Du        
  23567 ****         0.7500  -4.0000  14.7500 Du        
  23568 ****         0.7500  -4.0000  15.0000 Du        
  23569 ****         0.7500  -4.0000  15.2500 Du        
  23570 ****         0.7500  -4.0000  15.5000 Du        
  23571 ****         0.7500  -4.0000  15.7500 Du        
  23572 ****         0.7500  -3.7500  15.0000 Du        
  23573 ****         0.7500  -3.7500  15.2500 Du        
  23574 ****         0.7500  -3.2500   9.0000 Du        
  23575 ****         0.7500  -3.2500   9.2500 Du        
  23576 ****         0.7500  -3.2500  10.0000 Du        
  23577 ****         0.7500  -3.2500  10.2500 Du        
  23578 ****         0.7500  -3.2500  10.5000 Du        
  23579 ****         0.7500  -3.2500  10.7500 Du        
  23580 ****         0.7500  -3.2500  11.0000 Du        
  23581 ****         0.7500  -3.0000  10.0000 Du        
  23582 ****         0.7500  -3.0000  10.2500 Du        
  23583 ****         0.7500   6.7500  18.0000 Du        
  23584 ****         0.7500   6.7500  18.2500 Du        
  23585 ****         0.7500   7.0000  17.7500 Du        
  23586 ****         0.7500   7.0000  18.0000 Du        
  23587 ****         0.7500   7.0000  18.2500 Du        
  23588 ****         0.7500   7.2500  17.5000 Du        
  23589 ****         0.7500   7.2500  17.7500 Du        
  23590 ****         0.7500   7.2500  18.0000 Du        
  23591 ****         0.7500   7.2500  18.2500 Du        
  23592 ****         0.7500   7.5000  17.5000 Du        
  23593 ****         0.7500   7.5000  17.7500 Du        
  23594 ****         0.7500   7.5000  18.0000 Du        
  23595 ****         0.7500   7.5000  18.2500 Du        
  23596 ****         0.7500   7.7500  17.2500 Du        
  23597 ****         0.7500   7.7500  17.5000 Du        
  23598 ****         0.7500   7.7500  17.7500 Du        
  23599 ****         0.7500   7.7500  18.0000 Du        
  23600 ****         0.7500   7.7500  18.2500 Du        
  23601 ****         0.7500   8.0000  17.2500 Du        
  23602 ****         0.7500   8.0000  17.5000 Du        
  23603 ****         0.7500   8.0000  17.7500 Du        
  23604 ****         0.7500   8.0000  18.0000 Du        
  23605 ****         0.7500   8.2500  17.2500 Du        
  23606 ****         0.7500   8.2500  17.5000 Du        
  23607 ****         0.7500   8.2500  17.7500 Du        
  23608 ****         0.7500   8.2500  18.0000 Du        
  23609 ****         0.7500   8.2500  27.2500 Du        
  23610 ****         0.7500   8.2500  28.0000 Du        
  23611 ****         0.7500   8.5000  17.5000 Du        
  23612 ****         0.7500   8.5000  26.0000 Du        
  23613 ****         0.7500   8.5000  26.2500 Du        
  23614 ****         0.7500   8.5000  26.5000 Du        
  23615 ****         0.7500   8.5000  26.7500 Du        
  23616 ****         0.7500   8.5000  27.0000 Du        
  23617 ****         0.7500   8.5000  27.2500 Du        
  23618 ****         0.7500   8.5000  27.5000 Du        
  23619 ****         0.7500   8.5000  27.7500 Du        
  23620 ****         0.7500   8.5000  28.0000 Du        
  23621 ****         0.7500   8.5000  28.2500 Du        
  23622 ****         0.7500   8.5000  28.5000 Du        
  23623 ****         0.7500   8.5000  28.7500 Du        
  23624 ****         0.7500   8.5000  29.0000 Du        
  23625 ****         0.7500   8.5000  29.2500 Du        
  23626 ****         0.7500   8.7500  25.7500 Du        
  23627 ****         0.7500   8.7500  26.0000 Du        
  23628 ****         0.7500   8.7500  26.2500 Du        
  23629 ****         0.7500   8.7500  26.5000 Du        
  23630 ****         0.7500   8.7500  26.7500 Du        
  23631 ****         0.7500   8.7500  27.0000 Du        
  23632 ****         0.7500   8.7500  27.2500 Du        
  23633 ****         0.7500   8.7500  27.5000 Du        
  23634 ****         0.7500   8.7500  27.7500 Du        
  23635 ****         0.7500   8.7500  28.0000 Du        
  23636 ****         0.7500   8.7500  28.2500 Du        
  23637 ****         0.7500   8.7500  28.5000 Du        
  23638 ****         0.7500   8.7500  28.7500 Du        
  23639 ****         0.7500   8.7500  29.0000 Du        
  23640 ****         0.7500   9.0000  25.7500 Du        
  23641 ****         0.7500   9.0000  26.0000 Du        
  23642 ****         0.7500   9.0000  26.2500 Du        
  23643 ****         0.7500   9.0000  26.5000 Du        
  23644 ****         0.7500   9.0000  26.7500 Du        
  23645 ****         0.7500   9.0000  27.0000 Du        
  23646 ****         0.7500   9.0000  27.2500 Du        
  23647 ****         0.7500   9.0000  27.5000 Du        
  23648 ****         0.7500   9.0000  27.7500 Du        
  23649 ****         0.7500   9.0000  28.0000 Du        
  23650 ****         0.7500   9.0000  28.2500 Du        
  23651 ****         0.7500   9.2500  26.2500 Du        
  23652 ****         0.7500   9.2500  26.5000 Du        
  23653 ****         0.7500   9.2500  26.7500 Du        
  23654 ****         0.7500   9.2500  27.0000 Du        
  23655 ****         0.7500   9.2500  27.2500 Du        
  23656 ****         0.7500   9.2500  27.5000 Du        
  23657 ****         0.7500   9.2500  27.7500 Du        
  23658 ****         1.0000 -17.2500  29.5000 Du        
  23659 ****         1.0000 -17.2500  29.7500 Du        
  23660 ****         1.0000 -17.2500  30.0000 Du        
  23661 ****         1.0000 -17.2500  30.2500 Du        
  23662 ****         1.0000 -17.2500  30.5000 Du        
  23663 ****         1.0000 -17.2500  30.7500 Du        
  23664 ****         1.0000 -17.2500  31.0000 Du        
  23665 ****         1.0000 -17.2500  31.2500 Du        
  23666 ****         1.0000 -17.2500  31.5000 Du        
  23667 ****         1.0000 -17.2500  31.7500 Du        
  23668 ****         1.0000 -17.0000  29.5000 Du        
  23669 ****         1.0000 -17.0000  29.7500 Du        
  23670 ****         1.0000 -17.0000  30.0000 Du        
  23671 ****         1.0000 -17.0000  30.2500 Du        
  23672 ****         1.0000 -17.0000  30.5000 Du        
  23673 ****         1.0000 -17.0000  30.7500 Du        
  23674 ****         1.0000 -17.0000  31.0000 Du        
  23675 ****         1.0000 -17.0000  31.2500 Du        
  23676 ****         1.0000 -17.0000  31.5000 Du        
  23677 ****         1.0000 -17.0000  31.7500 Du        
  23678 ****         1.0000 -16.7500  29.7500 Du        
  23679 ****         1.0000 -16.7500  30.0000 Du        
  23680 ****         1.0000 -16.7500  30.2500 Du        
  23681 ****         1.0000 -16.7500  30.5000 Du        
  23682 ****         1.0000 -16.7500  30.7500 Du        
  23683 ****         1.0000 -16.7500  31.0000 Du        
  23684 ****         1.0000 -16.7500  31.2500 Du        
  23685 ****         1.0000 -16.7500  31.5000 Du        
  23686 ****         1.0000 -16.7500  31.7500 Du        
  23687 ****         1.0000 -16.5000  30.2500 Du        
  23688 ****         1.0000 -16.5000  30.5000 Du        
  23689 ****         1.0000 -16.5000  30.7500 Du        
  23690 ****         1.0000 -16.5000  31.0000 Du        
  23691 ****         1.0000 -16.5000  31.2500 Du        
  23692 ****         1.0000 -16.2500  30.5000 Du        
  23693 ****         1.0000 -16.2500  30.7500 Du        
  23694 ****         1.0000 -16.2500  31.0000 Du        
  23695 ****         1.0000 -16.2500  31.2500 Du        
  23696 ****         1.0000 -16.0000  30.7500 Du        
  23697 ****         1.0000 -16.0000  31.0000 Du        
  23698 ****         1.0000 -16.0000  31.2500 Du        
  23699 ****         1.0000  -7.0000  25.0000 Du        
  23700 ****         1.0000  -7.0000  25.2500 Du        
  23701 ****         1.0000  -6.7500  24.2500 Du        
  23702 ****         1.0000  -6.7500  24.5000 Du        
  23703 ****         1.0000  -6.7500  24.7500 Du        
  23704 ****         1.0000  -6.7500  25.0000 Du        
  23705 ****         1.0000  -6.5000  24.2500 Du        
  23706 ****         1.0000  -6.5000  24.5000 Du        
  23707 ****         1.0000  -6.5000  24.7500 Du        
  23708 ****         1.0000  -6.5000  25.0000 Du        
  23709 ****         1.0000  -6.2500  24.2500 Du        
  23710 ****         1.0000  -6.2500  24.5000 Du        
  23711 ****         1.0000  -6.2500  24.7500 Du        
  23712 ****         1.0000  -6.0000  24.2500 Du        
  23713 ****         1.0000  -4.5000  15.0000 Du        
  23714 ****         1.0000  -4.5000  15.2500 Du        
  23715 ****         1.0000  -4.5000  15.5000 Du        
  23716 ****         1.0000  -4.5000  15.7500 Du        
  23717 ****         1.0000  -4.2500  15.0000 Du        
  23718 ****         1.0000  -4.2500  15.2500 Du        
  23719 ****         1.0000  -4.2500  15.5000 Du        
  23720 ****         1.0000  -4.2500  15.7500 Du        
  23721 ****         1.0000  -4.2500  16.0000 Du        
  23722 ****         1.0000  -4.0000  14.7500 Du        
  23723 ****         1.0000  -4.0000  15.0000 Du        
  23724 ****         1.0000  -4.0000  15.2500 Du        
  23725 ****         1.0000  -4.0000  15.5000 Du        
  23726 ****         1.0000  -4.0000  15.7500 Du        
  23727 ****         1.0000  -4.0000  16.0000 Du        
  23728 ****         1.0000  -3.7500  15.0000 Du        
  23729 ****         1.0000  -3.7500  15.2500 Du        
  23730 ****         1.0000  -3.2500  10.5000 Du        
  23731 ****         1.0000  -3.2500  10.7500 Du        
  23732 ****         1.0000   7.5000  17.2500 Du        
  23733 ****         1.0000   7.5000  17.5000 Du        
  23734 ****         1.0000   7.5000  17.7500 Du        
  23735 ****         1.0000   7.5000  18.0000 Du        
  23736 ****         1.0000   7.7500  17.0000 Du        
  23737 ****         1.0000   7.7500  17.2500 Du        
  23738 ****         1.0000   7.7500  17.5000 Du        
  23739 ****         1.0000   7.7500  17.7500 Du        
  23740 ****         1.0000   7.7500  18.0000 Du        
  23741 ****         1.0000   7.7500  18.2500 Du        
  23742 ****         1.0000   8.0000  17.0000 Du        
  23743 ****         1.0000   8.0000  17.2500 Du        
  23744 ****         1.0000   8.0000  17.5000 Du        
  23745 ****         1.0000   8.0000  17.7500 Du        
  23746 ****         1.0000   8.0000  18.0000 Du        
  23747 ****         1.0000   8.2500  17.2500 Du        
  23748 ****         1.0000   8.2500  17.5000 Du        
  23749 ****         1.0000   8.2500  17.7500 Du        
  23750 ****         1.0000   8.2500  26.0000 Du        
  23751 ****         1.0000   8.5000  17.2500 Du        
  23752 ****         1.0000   8.5000  17.5000 Du        
  23753 ****         1.0000   8.5000  24.7500 Du        
  23754 ****         1.0000   8.5000  25.0000 Du        
  23755 ****         1.0000   8.5000  25.2500 Du        
  23756 ****         1.0000   8.5000  25.5000 Du        
  23757 ****         1.0000   8.5000  25.7500 Du        
  23758 ****         1.0000   8.5000  26.0000 Du        
  23759 ****         1.0000   8.5000  26.2500 Du        
  23760 ****         1.0000   8.5000  26.5000 Du        
  23761 ****         1.0000   8.5000  26.7500 Du        
  23762 ****         1.0000   8.5000  27.0000 Du        
  23763 ****         1.0000   8.5000  27.2500 Du        
  23764 ****         1.0000   8.5000  27.5000 Du        
  23765 ****         1.0000   8.5000  27.7500 Du        
  23766 ****         1.0000   8.5000  28.0000 Du        
  23767 ****         1.0000   8.5000  28.2500 Du        
  23768 ****         1.0000   8.5000  28.5000 Du        
  23769 ****         1.0000   8.5000  28.7500 Du        
  23770 ****         1.0000   8.5000  29.0000 Du        
  23771 ****         1.0000   8.5000  29.2500 Du        
  23772 ****         1.0000   8.7500  24.7500 Du        
  23773 ****         1.0000   8.7500  25.0000 Du        
  23774 ****         1.0000   8.7500  25.2500 Du        
  23775 ****         1.0000   8.7500  25.5000 Du        
  23776 ****         1.0000   8.7500  25.7500 Du        
  23777 ****         1.0000   8.7500  26.0000 Du        
  23778 ****         1.0000   8.7500  26.2500 Du        
  23779 ****         1.0000   8.7500  26.5000 Du        
  23780 ****         1.0000   8.7500  26.7500 Du        
  23781 ****         1.0000   8.7500  27.0000 Du        
  23782 ****         1.0000   8.7500  27.2500 Du        
  23783 ****         1.0000   8.7500  27.5000 Du        
  23784 ****         1.0000   8.7500  27.7500 Du        
  23785 ****         1.0000   8.7500  28.0000 Du        
  23786 ****         1.0000   8.7500  28.2500 Du        
  23787 ****         1.0000   8.7500  28.5000 Du        
  23788 ****         1.0000   8.7500  28.7500 Du        
  23789 ****         1.0000   8.7500  29.0000 Du        
  23790 ****         1.0000   9.0000  23.5000 Du        
  23791 ****         1.0000   9.0000  23.7500 Du        
  23792 ****         1.0000   9.0000  24.0000 Du        
  23793 ****         1.0000   9.0000  24.5000 Du        
  23794 ****         1.0000   9.0000  24.7500 Du        
  23795 ****         1.0000   9.0000  25.0000 Du        
  23796 ****         1.0000   9.0000  25.2500 Du        
  23797 ****         1.0000   9.0000  25.5000 Du        
  23798 ****         1.0000   9.0000  25.7500 Du        
  23799 ****         1.0000   9.0000  26.0000 Du        
  23800 ****         1.0000   9.0000  26.2500 Du        
  23801 ****         1.0000   9.0000  26.5000 Du        
  23802 ****         1.0000   9.0000  26.7500 Du        
  23803 ****         1.0000   9.0000  27.0000 Du        
  23804 ****         1.0000   9.0000  27.2500 Du        
  23805 ****         1.0000   9.0000  27.5000 Du        
  23806 ****         1.0000   9.0000  27.7500 Du        
  23807 ****         1.0000   9.0000  28.0000 Du        
  23808 ****         1.0000   9.0000  28.2500 Du        
  23809 ****         1.0000   9.2500  23.5000 Du        
  23810 ****         1.0000   9.2500  23.7500 Du        
  23811 ****         1.0000   9.2500  24.0000 Du        
  23812 ****         1.0000   9.2500  24.7500 Du        
  23813 ****         1.0000   9.2500  25.0000 Du        
  23814 ****         1.0000   9.2500  25.2500 Du        
  23815 ****         1.0000   9.2500  25.5000 Du        
  23816 ****         1.0000   9.2500  25.7500 Du        
  23817 ****         1.0000   9.2500  26.0000 Du        
  23818 ****         1.0000   9.2500  26.2500 Du        
  23819 ****         1.0000   9.2500  26.5000 Du        
  23820 ****         1.0000   9.2500  26.7500 Du        
  23821 ****         1.0000   9.2500  27.0000 Du        
  23822 ****         1.0000   9.2500  27.2500 Du        
  23823 ****         1.0000   9.2500  27.5000 Du        
  23824 ****         1.0000   9.2500  27.7500 Du        
  23825 ****         1.0000   9.2500  28.0000 Du        
  23826 ****         1.0000   9.5000  26.7500 Du        
  23827 ****         1.0000   9.5000  27.0000 Du        
  23828 ****         1.0000   9.5000  27.2500 Du        
  23829 ****         1.0000   9.5000  27.5000 Du        
  23830 ****         1.2500 -17.2500  29.2500 Du        
  23831 ****         1.2500 -17.2500  29.5000 Du        
  23832 ****         1.2500 -17.2500  29.7500 Du        
  23833 ****         1.2500 -17.2500  30.0000 Du        
  23834 ****         1.2500 -17.2500  30.2500 Du        
  23835 ****         1.2500 -17.2500  30.5000 Du        
  23836 ****         1.2500 -17.2500  30.7500 Du        
  23837 ****         1.2500 -17.2500  31.0000 Du        
  23838 ****         1.2500 -17.2500  31.2500 Du        
  23839 ****         1.2500 -17.2500  31.5000 Du        
  23840 ****         1.2500 -17.2500  31.7500 Du        
  23841 ****         1.2500 -17.0000  29.5000 Du        
  23842 ****         1.2500 -17.0000  29.7500 Du        
  23843 ****         1.2500 -17.0000  30.0000 Du        
  23844 ****         1.2500 -17.0000  30.2500 Du        
  23845 ****         1.2500 -17.0000  30.5000 Du        
  23846 ****         1.2500 -17.0000  30.7500 Du        
  23847 ****         1.2500 -17.0000  31.0000 Du        
  23848 ****         1.2500 -17.0000  31.2500 Du        
  23849 ****         1.2500 -17.0000  31.5000 Du        
  23850 ****         1.2500 -17.0000  31.7500 Du        
  23851 ****         1.2500 -16.7500  29.5000 Du        
  23852 ****         1.2500 -16.7500  29.7500 Du        
  23853 ****         1.2500 -16.7500  30.0000 Du        
  23854 ****         1.2500 -16.7500  30.2500 Du        
  23855 ****         1.2500 -16.7500  30.5000 Du        
  23856 ****         1.2500 -16.7500  30.7500 Du        
  23857 ****         1.2500 -16.7500  31.0000 Du        
  23858 ****         1.2500 -16.7500  31.2500 Du        
  23859 ****         1.2500 -16.5000  30.0000 Du        
  23860 ****         1.2500 -16.5000  30.2500 Du        
  23861 ****         1.2500 -16.5000  30.5000 Du        
  23862 ****         1.2500 -16.5000  30.7500 Du        
  23863 ****         1.2500 -16.5000  31.0000 Du        
  23864 ****         1.2500 -16.5000  31.2500 Du        
  23865 ****         1.2500 -16.2500  30.2500 Du        
  23866 ****         1.2500 -16.2500  30.5000 Du        
  23867 ****         1.2500 -16.2500  30.7500 Du        
  23868 ****         1.2500 -16.2500  31.0000 Du        
  23869 ****         1.2500 -16.2500  31.2500 Du        
  23870 ****         1.2500 -16.0000  30.5000 Du        
  23871 ****         1.2500 -16.0000  30.7500 Du        
  23872 ****         1.2500 -16.0000  31.0000 Du        
  23873 ****         1.2500  -6.7500  25.0000 Du        
  23874 ****         1.2500  -6.7500  25.2500 Du        
  23875 ****         1.2500  -4.2500  15.2500 Du        
  23876 ****         1.2500  -4.2500  15.5000 Du        
  23877 ****         1.2500  -4.2500  15.7500 Du        
  23878 ****         1.2500  -4.0000  15.0000 Du        
  23879 ****         1.2500  -4.0000  15.2500 Du        
  23880 ****         1.2500  -4.0000  15.5000 Du        
  23881 ****         1.2500  -4.0000  15.7500 Du        
  23882 ****         1.2500  -4.0000  16.0000 Du        
  23883 ****         1.2500  -3.7500  15.2500 Du        
  23884 ****         1.2500   7.5000  17.5000 Du        
  23885 ****         1.2500   7.7500  17.2500 Du        
  23886 ****         1.2500   7.7500  17.5000 Du        
  23887 ****         1.2500   7.7500  17.7500 Du        
  23888 ****         1.2500   8.0000  17.0000 Du        
  23889 ****         1.2500   8.0000  17.2500 Du        
  23890 ****         1.2500   8.0000  17.5000 Du        
  23891 ****         1.2500   8.0000  17.7500 Du        
  23892 ****         1.2500   8.0000  18.0000 Du        
  23893 ****         1.2500   8.2500  17.0000 Du        
  23894 ****         1.2500   8.2500  17.2500 Du        
  23895 ****         1.2500   8.2500  17.5000 Du        
  23896 ****         1.2500   8.2500  17.7500 Du        
  23897 ****         1.2500   8.5000  17.2500 Du        
  23898 ****         1.2500   8.5000  17.5000 Du        
  23899 ****         1.2500   8.5000  24.5000 Du        
  23900 ****         1.2500   8.5000  24.7500 Du        
  23901 ****         1.2500   8.5000  25.0000 Du        
  23902 ****         1.2500   8.5000  25.2500 Du        
  23903 ****         1.2500   8.5000  25.5000 Du        
  23904 ****         1.2500   8.5000  25.7500 Du        
  23905 ****         1.2500   8.5000  26.0000 Du        
  23906 ****         1.2500   8.5000  26.2500 Du        
  23907 ****         1.2500   8.5000  26.5000 Du        
  23908 ****         1.2500   8.5000  26.7500 Du        
  23909 ****         1.2500   8.5000  27.0000 Du        
  23910 ****         1.2500   8.5000  27.2500 Du        
  23911 ****         1.2500   8.5000  27.5000 Du        
  23912 ****         1.2500   8.5000  27.7500 Du        
  23913 ****         1.2500   8.5000  28.0000 Du        
  23914 ****         1.2500   8.5000  28.2500 Du        
  23915 ****         1.2500   8.5000  28.5000 Du        
  23916 ****         1.2500   8.5000  28.7500 Du        
  23917 ****         1.2500   8.7500  23.7500 Du        
  23918 ****         1.2500   8.7500  24.0000 Du        
  23919 ****         1.2500   8.7500  24.2500 Du        
  23920 ****         1.2500   8.7500  24.5000 Du        
  23921 ****         1.2500   8.7500  24.7500 Du        
  23922 ****         1.2500   8.7500  25.0000 Du        
  23923 ****         1.2500   8.7500  25.2500 Du        
  23924 ****         1.2500   8.7500  25.5000 Du        
  23925 ****         1.2500   8.7500  25.7500 Du        
  23926 ****         1.2500   8.7500  26.0000 Du        
  23927 ****         1.2500   8.7500  26.2500 Du        
  23928 ****         1.2500   8.7500  26.5000 Du        
  23929 ****         1.2500   8.7500  26.7500 Du        
  23930 ****         1.2500   8.7500  27.0000 Du        
  23931 ****         1.2500   8.7500  27.2500 Du        
  23932 ****         1.2500   8.7500  27.5000 Du        
  23933 ****         1.2500   8.7500  27.7500 Du        
  23934 ****         1.2500   8.7500  28.0000 Du        
  23935 ****         1.2500   8.7500  28.2500 Du        
  23936 ****         1.2500   8.7500  28.5000 Du        
  23937 ****         1.2500   8.7500  28.7500 Du        
  23938 ****         1.2500   9.0000  23.5000 Du        
  23939 ****         1.2500   9.0000  23.7500 Du        
  23940 ****         1.2500   9.0000  24.0000 Du        
  23941 ****         1.2500   9.0000  24.2500 Du        
  23942 ****         1.2500   9.0000  24.5000 Du        
  23943 ****         1.2500   9.0000  24.7500 Du        
  23944 ****         1.2500   9.0000  25.0000 Du        
  23945 ****         1.2500   9.0000  25.2500 Du        
  23946 ****         1.2500   9.0000  25.5000 Du        
  23947 ****         1.2500   9.0000  25.7500 Du        
  23948 ****         1.2500   9.0000  26.0000 Du        
  23949 ****         1.2500   9.0000  26.2500 Du        
  23950 ****         1.2500   9.0000  26.5000 Du        
  23951 ****         1.2500   9.0000  26.7500 Du        
  23952 ****         1.2500   9.0000  27.0000 Du        
  23953 ****         1.2500   9.0000  27.2500 Du        
  23954 ****         1.2500   9.0000  27.5000 Du        
  23955 ****         1.2500   9.0000  27.7500 Du        
  23956 ****         1.2500   9.0000  28.0000 Du        
  23957 ****         1.2500   9.0000  28.2500 Du        
  23958 ****         1.2500   9.2500  23.5000 Du        
  23959 ****         1.2500   9.2500  23.7500 Du        
  23960 ****         1.2500   9.2500  24.0000 Du        
  23961 ****         1.2500   9.2500  24.2500 Du        
  23962 ****         1.2500   9.2500  24.5000 Du        
  23963 ****         1.2500   9.2500  24.7500 Du        
  23964 ****         1.2500   9.2500  25.0000 Du        
  23965 ****         1.2500   9.2500  25.2500 Du        
  23966 ****         1.2500   9.2500  25.5000 Du        
  23967 ****         1.2500   9.2500  25.7500 Du        
  23968 ****         1.2500   9.2500  26.0000 Du        
  23969 ****         1.2500   9.2500  26.2500 Du        
  23970 ****         1.2500   9.2500  26.5000 Du        
  23971 ****         1.2500   9.2500  26.7500 Du        
  23972 ****         1.2500   9.2500  27.0000 Du        
  23973 ****         1.2500   9.2500  27.2500 Du        
  23974 ****         1.2500   9.2500  27.5000 Du        
  23975 ****         1.2500   9.2500  27.7500 Du        
  23976 ****         1.2500   9.2500  28.0000 Du        
  23977 ****         1.2500   9.5000  24.0000 Du        
  23978 ****         1.2500   9.5000  24.2500 Du        
  23979 ****         1.2500   9.5000  24.7500 Du        
  23980 ****         1.2500   9.5000  26.5000 Du        
  23981 ****         1.2500   9.5000  26.7500 Du        
  23982 ****         1.2500   9.5000  27.0000 Du        
  23983 ****         1.2500   9.5000  27.2500 Du        
  23984 ****         1.2500   9.5000  27.5000 Du        
  23985 ****         1.5000 -17.2500  29.2500 Du        
  23986 ****         1.5000 -17.2500  29.5000 Du        
  23987 ****         1.5000 -17.2500  29.7500 Du        
  23988 ****         1.5000 -17.2500  30.0000 Du        
  23989 ****         1.5000 -17.2500  30.2500 Du        
  23990 ****         1.5000 -17.2500  30.5000 Du        
  23991 ****         1.5000 -17.2500  30.7500 Du        
  23992 ****         1.5000 -17.2500  31.0000 Du        
  23993 ****         1.5000 -17.2500  31.2500 Du        
  23994 ****         1.5000 -17.0000  29.2500 Du        
  23995 ****         1.5000 -17.0000  29.5000 Du        
  23996 ****         1.5000 -17.0000  29.7500 Du        
  23997 ****         1.5000 -17.0000  30.0000 Du        
  23998 ****         1.5000 -17.0000  30.2500 Du        
  23999 ****         1.5000 -17.0000  30.5000 Du        
  24000 ****         1.5000 -17.0000  30.7500 Du        
  24001 ****         1.5000 -17.0000  31.0000 Du        
  24002 ****         1.5000 -17.0000  31.2500 Du        
  24003 ****         1.5000 -16.7500  29.5000 Du        
  24004 ****         1.5000 -16.7500  29.7500 Du        
  24005 ****         1.5000 -16.7500  30.0000 Du        
  24006 ****         1.5000 -16.7500  30.2500 Du        
  24007 ****         1.5000 -16.7500  30.5000 Du        
  24008 ****         1.5000 -16.7500  30.7500 Du        
  24009 ****         1.5000 -16.7500  31.0000 Du        
  24010 ****         1.5000 -16.7500  31.2500 Du        
  24011 ****         1.5000 -16.5000  29.7500 Du        
  24012 ****         1.5000 -16.5000  30.0000 Du        
  24013 ****         1.5000 -16.5000  30.2500 Du        
  24014 ****         1.5000 -16.5000  30.5000 Du        
  24015 ****         1.5000 -16.5000  30.7500 Du        
  24016 ****         1.5000 -16.5000  31.0000 Du        
  24017 ****         1.5000 -16.2500  30.0000 Du        
  24018 ****         1.5000 -16.2500  30.2500 Du        
  24019 ****         1.5000 -16.2500  30.5000 Du        
  24020 ****         1.5000 -16.2500  30.7500 Du        
  24021 ****         1.5000   8.5000  25.7500 Du        
  24022 ****         1.5000   8.5000  26.0000 Du        
  24023 ****         1.5000   8.5000  26.2500 Du        
  24024 ****         1.5000   8.5000  26.5000 Du        
  24025 ****         1.5000   8.5000  26.7500 Du        
  24026 ****         1.5000   8.5000  27.0000 Du        
  24027 ****         1.5000   8.5000  27.2500 Du        
  24028 ****         1.5000   8.5000  27.5000 Du        
  24029 ****         1.5000   8.5000  27.7500 Du        
  24030 ****         1.5000   8.5000  28.0000 Du        
  24031 ****         1.5000   8.5000  28.2500 Du        
  24032 ****         1.5000   8.5000  28.5000 Du        
  24033 ****         1.5000   8.5000  28.7500 Du        
  24034 ****         1.5000   8.7500  24.7500 Du        
  24035 ****         1.5000   8.7500  25.0000 Du        
  24036 ****         1.5000   8.7500  25.2500 Du        
  24037 ****         1.5000   8.7500  25.5000 Du        
  24038 ****         1.5000   8.7500  25.7500 Du        
  24039 ****         1.5000   8.7500  26.0000 Du        
  24040 ****         1.5000   8.7500  26.2500 Du        
  24041 ****         1.5000   8.7500  26.5000 Du        
  24042 ****         1.5000   8.7500  26.7500 Du        
  24043 ****         1.5000   8.7500  27.0000 Du        
  24044 ****         1.5000   8.7500  27.2500 Du        
  24045 ****         1.5000   8.7500  27.5000 Du        
  24046 ****         1.5000   8.7500  27.7500 Du        
  24047 ****         1.5000   8.7500  28.0000 Du        
  24048 ****         1.5000   8.7500  28.2500 Du        
  24049 ****         1.5000   8.7500  28.5000 Du        
  24050 ****         1.5000   8.7500  28.7500 Du        
  24051 ****         1.5000   9.0000  24.5000 Du        
  24052 ****         1.5000   9.0000  24.7500 Du        
  24053 ****         1.5000   9.0000  25.0000 Du        
  24054 ****         1.5000   9.0000  25.2500 Du        
  24055 ****         1.5000   9.0000  25.5000 Du        
  24056 ****         1.5000   9.0000  25.7500 Du        
  24057 ****         1.5000   9.0000  26.0000 Du        
  24058 ****         1.5000   9.0000  26.2500 Du        
  24059 ****         1.5000   9.0000  26.5000 Du        
  24060 ****         1.5000   9.0000  26.7500 Du        
  24061 ****         1.5000   9.0000  27.0000 Du        
  24062 ****         1.5000   9.0000  27.2500 Du        
  24063 ****         1.5000   9.0000  27.5000 Du        
  24064 ****         1.5000   9.0000  27.7500 Du        
  24065 ****         1.5000   9.0000  28.0000 Du        
  24066 ****         1.5000   9.0000  28.2500 Du        
  24067 ****         1.5000   9.2500  24.5000 Du        
  24068 ****         1.5000   9.2500  24.7500 Du        
  24069 ****         1.5000   9.2500  25.0000 Du        
  24070 ****         1.5000   9.2500  25.2500 Du        
  24071 ****         1.5000   9.2500  25.5000 Du        
  24072 ****         1.5000   9.2500  25.7500 Du        
  24073 ****         1.5000   9.2500  26.0000 Du        
  24074 ****         1.5000   9.2500  26.2500 Du        
  24075 ****         1.5000   9.2500  26.5000 Du        
  24076 ****         1.5000   9.2500  26.7500 Du        
  24077 ****         1.5000   9.2500  27.0000 Du        
  24078 ****         1.5000   9.2500  27.2500 Du        
  24079 ****         1.5000   9.2500  27.5000 Du        
  24080 ****         1.5000   9.2500  27.7500 Du        
  24081 ****         1.5000   9.2500  28.0000 Du        
  24082 ****         1.5000   9.5000  24.2500 Du        
  24083 ****         1.5000   9.5000  25.7500 Du        
  24084 ****         1.5000   9.5000  26.0000 Du        
  24085 ****         1.5000   9.5000  26.2500 Du        
  24086 ****         1.5000   9.5000  26.5000 Du        
  24087 ****         1.5000   9.5000  26.7500 Du        
  24088 ****         1.5000   9.5000  27.0000 Du        
  24089 ****         1.5000   9.5000  27.2500 Du        
  24090 ****         1.5000   9.5000  27.5000 Du        
  24091 ****         1.5000   9.5000  27.7500 Du        
  24092 ****         1.7500 -17.2500  29.2500 Du        
  24093 ****         1.7500 -17.2500  29.5000 Du        
  24094 ****         1.7500 -17.2500  29.7500 Du        
  24095 ****         1.7500 -17.2500  30.0000 Du        
  24096 ****         1.7500 -17.2500  30.2500 Du        
  24097 ****         1.7500 -17.2500  30.5000 Du        
  24098 ****         1.7500 -17.2500  30.7500 Du        
  24099 ****         1.7500 -17.2500  31.0000 Du        
  24100 ****         1.7500 -17.2500  31.2500 Du        
  24101 ****         1.7500 -17.0000  29.2500 Du        
  24102 ****         1.7500 -17.0000  29.5000 Du        
  24103 ****         1.7500 -17.0000  29.7500 Du        
  24104 ****         1.7500 -17.0000  30.0000 Du        
  24105 ****         1.7500 -17.0000  30.2500 Du        
  24106 ****         1.7500 -17.0000  30.5000 Du        
  24107 ****         1.7500 -17.0000  30.7500 Du        
  24108 ****         1.7500 -17.0000  31.0000 Du        
  24109 ****         1.7500 -17.0000  31.2500 Du        
  24110 ****         1.7500 -16.7500  29.2500 Du        
  24111 ****         1.7500 -16.7500  29.5000 Du        
  24112 ****         1.7500 -16.7500  29.7500 Du        
  24113 ****         1.7500 -16.7500  30.0000 Du        
  24114 ****         1.7500 -16.7500  30.2500 Du        
  24115 ****         1.7500 -16.7500  30.5000 Du        
  24116 ****         1.7500 -16.7500  30.7500 Du        
  24117 ****         1.7500 -16.7500  31.0000 Du        
  24118 ****         1.7500 -16.7500  31.2500 Du        
  24119 ****         1.7500 -16.5000  29.5000 Du        
  24120 ****         1.7500 -16.5000  29.7500 Du        
  24121 ****         1.7500 -16.5000  30.0000 Du        
  24122 ****         1.7500 -16.5000  30.2500 Du        
  24123 ****         1.7500 -16.5000  30.5000 Du        
  24124 ****         1.7500 -16.5000  30.7500 Du        
  24125 ****         1.7500 -16.5000  31.0000 Du        
  24126 ****         1.7500 -16.2500  29.7500 Du        
  24127 ****         1.7500 -16.2500  30.0000 Du        
  24128 ****         1.7500 -16.2500  30.2500 Du        
  24129 ****         1.7500 -16.2500  30.5000 Du        
  24130 ****         1.7500 -16.2500  30.7500 Du        
  24131 ****         1.7500 -16.0000  30.0000 Du        
  24132 ****         1.7500 -16.0000  30.2500 Du        
  24133 ****         1.7500   8.5000  25.7500 Du        
  24134 ****         1.7500   8.5000  26.0000 Du        
  24135 ****         1.7500   8.5000  26.5000 Du        
  24136 ****         1.7500   8.5000  26.7500 Du        
  24137 ****         1.7500   8.5000  27.0000 Du        
  24138 ****         1.7500   8.5000  27.2500 Du        
  24139 ****         1.7500   8.5000  27.5000 Du        
  24140 ****         1.7500   8.5000  27.7500 Du        
  24141 ****         1.7500   8.5000  28.0000 Du        
  24142 ****         1.7500   8.5000  28.2500 Du        
  24143 ****         1.7500   8.5000  28.5000 Du        
  24144 ****         1.7500   8.7500  24.7500 Du        
  24145 ****         1.7500   8.7500  25.0000 Du        
  24146 ****         1.7500   8.7500  25.2500 Du        
  24147 ****         1.7500   8.7500  25.5000 Du        
  24148 ****         1.7500   8.7500  25.7500 Du        
  24149 ****         1.7500   8.7500  26.0000 Du        
  24150 ****         1.7500   8.7500  26.2500 Du        
  24151 ****         1.7500   8.7500  26.5000 Du        
  24152 ****         1.7500   8.7500  26.7500 Du        
  24153 ****         1.7500   8.7500  27.0000 Du        
  24154 ****         1.7500   8.7500  27.2500 Du        
  24155 ****         1.7500   8.7500  27.5000 Du        
  24156 ****         1.7500   8.7500  27.7500 Du        
  24157 ****         1.7500   8.7500  28.0000 Du        
  24158 ****         1.7500   8.7500  28.2500 Du        
  24159 ****         1.7500   8.7500  28.5000 Du        
  24160 ****         1.7500   8.7500  28.7500 Du        
  24161 ****         1.7500   9.0000  24.5000 Du        
  24162 ****         1.7500   9.0000  24.7500 Du        
  24163 ****         1.7500   9.0000  25.0000 Du        
  24164 ****         1.7500   9.0000  25.2500 Du        
  24165 ****         1.7500   9.0000  25.5000 Du        
  24166 ****         1.7500   9.0000  25.7500 Du        
  24167 ****         1.7500   9.0000  26.0000 Du        
  24168 ****         1.7500   9.0000  26.2500 Du        
  24169 ****         1.7500   9.0000  26.5000 Du        
  24170 ****         1.7500   9.0000  26.7500 Du        
  24171 ****         1.7500   9.0000  27.0000 Du        
  24172 ****         1.7500   9.0000  27.2500 Du        
  24173 ****         1.7500   9.0000  27.5000 Du        
  24174 ****         1.7500   9.0000  27.7500 Du        
  24175 ****         1.7500   9.0000  28.0000 Du        
  24176 ****         1.7500   9.0000  28.2500 Du        
  24177 ****         1.7500   9.0000  28.5000 Du        
  24178 ****         1.7500   9.2500  24.0000 Du        
  24179 ****         1.7500   9.2500  24.5000 Du        
  24180 ****         1.7500   9.2500  24.7500 Du        
  24181 ****         1.7500   9.2500  25.0000 Du        
  24182 ****         1.7500   9.2500  25.2500 Du        
  24183 ****         1.7500   9.2500  25.5000 Du        
  24184 ****         1.7500   9.2500  25.7500 Du        
  24185 ****         1.7500   9.2500  26.0000 Du        
  24186 ****         1.7500   9.2500  26.2500 Du        
  24187 ****         1.7500   9.2500  26.5000 Du        
  24188 ****         1.7500   9.2500  26.7500 Du        
  24189 ****         1.7500   9.2500  27.0000 Du        
  24190 ****         1.7500   9.2500  27.2500 Du        
  24191 ****         1.7500   9.2500  27.5000 Du        
  24192 ****         1.7500   9.2500  27.7500 Du        
  24193 ****         1.7500   9.2500  28.0000 Du        
  24194 ****         1.7500   9.2500  28.2500 Du        
  24195 ****         1.7500   9.5000  24.0000 Du        
  24196 ****         1.7500   9.5000  24.2500 Du        
  24197 ****         1.7500   9.5000  24.5000 Du        
  24198 ****         1.7500   9.5000  24.7500 Du        
  24199 ****         1.7500   9.5000  25.0000 Du        
  24200 ****         1.7500   9.5000  25.2500 Du        
  24201 ****         1.7500   9.5000  25.5000 Du        
  24202 ****         1.7500   9.5000  25.7500 Du        
  24203 ****         1.7500   9.5000  26.0000 Du        
  24204 ****         1.7500   9.5000  26.2500 Du        
  24205 ****         1.7500   9.5000  26.5000 Du        
  24206 ****         1.7500   9.5000  26.7500 Du        
  24207 ****         1.7500   9.5000  27.0000 Du        
  24208 ****         1.7500   9.5000  27.2500 Du        
  24209 ****         1.7500   9.5000  27.5000 Du        
  24210 ****         1.7500   9.5000  27.7500 Du        
  24211 ****         2.0000 -16.7500  29.2500 Du        
  24212 ****         2.0000 -16.7500  29.5000 Du        
  24213 ****         2.0000 -16.7500  29.7500 Du        
  24214 ****         2.0000 -16.7500  30.0000 Du        
  24215 ****         2.0000 -16.7500  30.2500 Du        
  24216 ****         2.0000 -16.7500  30.5000 Du        
  24217 ****         2.0000 -16.7500  30.7500 Du        
  24218 ****         2.0000 -16.7500  31.0000 Du        
  24219 ****         2.0000 -16.5000  29.2500 Du        
  24220 ****         2.0000 -16.5000  29.5000 Du        
  24221 ****         2.0000 -16.5000  29.7500 Du        
  24222 ****         2.0000 -16.5000  30.0000 Du        
  24223 ****         2.0000 -16.5000  30.2500 Du        
  24224 ****         2.0000 -16.5000  30.5000 Du        
  24225 ****         2.0000 -16.2500  29.5000 Du        
  24226 ****         2.0000 -16.2500  29.7500 Du        
  24227 ****         2.0000 -16.2500  30.0000 Du        
  24228 ****         2.0000 -16.2500  30.2500 Du        
  24229 ****         2.0000 -16.0000  29.7500 Du        
  24230 ****         2.0000 -16.0000  30.0000 Du        
  24231 ****         2.0000 -16.0000  30.2500 Du        
  24232 ****         2.0000  -4.0000   9.0000 Du        
  24233 ****         2.0000   8.5000  26.5000 Du        
  24234 ****         2.0000   8.5000  26.7500 Du        
  24235 ****         2.0000   8.5000  27.0000 Du        
  24236 ****         2.0000   8.5000  27.2500 Du        
  24237 ****         2.0000   8.5000  27.5000 Du        
  24238 ****         2.0000   8.5000  27.7500 Du        
  24239 ****         2.0000   8.5000  28.0000 Du        
  24240 ****         2.0000   8.5000  28.2500 Du        
  24241 ****         2.0000   8.5000  28.5000 Du        
  24242 ****         2.0000   8.7500  25.0000 Du        
  24243 ****         2.0000   8.7500  25.2500 Du        
  24244 ****         2.0000   8.7500  25.5000 Du        
  24245 ****         2.0000   8.7500  25.7500 Du        
  24246 ****         2.0000   8.7500  26.0000 Du        
  24247 ****         2.0000   8.7500  26.2500 Du        
  24248 ****         2.0000   8.7500  26.5000 Du        
  24249 ****         2.0000   8.7500  26.7500 Du        
  24250 ****         2.0000   8.7500  27.0000 Du        
  24251 ****         2.0000   8.7500  27.2500 Du        
  24252 ****         2.0000   8.7500  27.5000 Du        
  24253 ****         2.0000   8.7500  27.7500 Du        
  24254 ****         2.0000   8.7500  28.0000 Du        
  24255 ****         2.0000   8.7500  28.2500 Du        
  24256 ****         2.0000   8.7500  28.5000 Du        
  24257 ****         2.0000   8.7500  28.7500 Du        
  24258 ****         2.0000   9.0000  24.7500 Du        
  24259 ****         2.0000   9.0000  25.0000 Du        
  24260 ****         2.0000   9.0000  25.2500 Du        
  24261 ****         2.0000   9.0000  25.5000 Du        
  24262 ****         2.0000   9.0000  25.7500 Du        
  24263 ****         2.0000   9.0000  26.0000 Du        
  24264 ****         2.0000   9.0000  26.2500 Du        
  24265 ****         2.0000   9.0000  26.5000 Du        
  24266 ****         2.0000   9.0000  26.7500 Du        
  24267 ****         2.0000   9.0000  27.0000 Du        
  24268 ****         2.0000   9.0000  27.2500 Du        
  24269 ****         2.0000   9.0000  27.5000 Du        
  24270 ****         2.0000   9.0000  27.7500 Du        
  24271 ****         2.0000   9.0000  28.0000 Du        
  24272 ****         2.0000   9.0000  28.2500 Du        
  24273 ****         2.0000   9.0000  28.5000 Du        
  24274 ****         2.0000   9.2500  24.5000 Du        
  24275 ****         2.0000   9.2500  24.7500 Du        
  24276 ****         2.0000   9.2500  25.0000 Du        
  24277 ****         2.0000   9.2500  25.2500 Du        
  24278 ****         2.0000   9.2500  25.5000 Du        
  24279 ****         2.0000   9.2500  25.7500 Du        
  24280 ****         2.0000   9.2500  26.0000 Du        
  24281 ****         2.0000   9.2500  26.2500 Du        
  24282 ****         2.0000   9.2500  26.5000 Du        
  24283 ****         2.0000   9.2500  26.7500 Du        
  24284 ****         2.0000   9.2500  27.0000 Du        
  24285 ****         2.0000   9.2500  27.2500 Du        
  24286 ****         2.0000   9.2500  27.5000 Du        
  24287 ****         2.0000   9.2500  27.7500 Du        
  24288 ****         2.0000   9.2500  28.0000 Du        
  24289 ****         2.0000   9.2500  28.2500 Du        
  24290 ****         2.0000   9.5000  24.5000 Du        
  24291 ****         2.0000   9.5000  24.7500 Du        
  24292 ****         2.0000   9.5000  25.0000 Du        
  24293 ****         2.0000   9.5000  25.2500 Du        
  24294 ****         2.0000   9.5000  25.5000 Du        
  24295 ****         2.0000   9.5000  25.7500 Du        
  24296 ****         2.0000   9.5000  26.0000 Du        
  24297 ****         2.0000   9.5000  26.2500 Du        
  24298 ****         2.0000   9.5000  26.5000 Du        
  24299 ****         2.0000   9.5000  26.7500 Du        
  24300 ****         2.0000   9.5000  27.0000 Du        
  24301 ****         2.0000   9.5000  27.2500 Du        
  24302 ****         2.0000   9.5000  27.5000 Du        
  24303 ****         2.0000   9.5000  27.7500 Du        
  24304 ****         2.0000   9.5000  28.0000 Du        
  24305 ****         2.0000   9.7500  27.0000 Du        
  24306 ****         2.0000   9.7500  27.2500 Du        
  24307 ****         2.0000   9.7500  27.5000 Du        
  24308 ****         2.2500 -16.7500  29.0000 Du        
  24309 ****         2.2500 -16.7500  29.2500 Du        
  24310 ****         2.2500 -16.7500  29.5000 Du        
  24311 ****         2.2500 -16.7500  29.7500 Du        
  24312 ****         2.2500 -16.7500  30.0000 Du        
  24313 ****         2.2500 -16.7500  30.2500 Du        
  24314 ****         2.2500 -16.7500  30.5000 Du        
  24315 ****         2.2500 -16.5000  29.0000 Du        
  24316 ****         2.2500 -16.5000  29.2500 Du        
  24317 ****         2.2500 -16.5000  29.5000 Du        
  24318 ****         2.2500 -16.5000  29.7500 Du        
  24319 ****         2.2500 -16.5000  30.0000 Du        
  24320 ****         2.2500 -16.5000  30.2500 Du        
  24321 ****         2.2500 -16.2500  29.2500 Du        
  24322 ****         2.2500 -16.2500  29.5000 Du        
  24323 ****         2.2500 -16.2500  29.7500 Du        
  24324 ****         2.2500 -16.2500  30.0000 Du        
  24325 ****         2.2500 -16.0000  29.5000 Du        
  24326 ****         2.2500 -16.0000  29.7500 Du        
  24327 ****         2.2500  -4.0000   9.0000 Du        
  24328 ****         2.2500   8.5000  26.2500 Du        
  24329 ****         2.2500   8.5000  26.5000 Du        
  24330 ****         2.2500   8.5000  26.7500 Du        
  24331 ****         2.2500   8.5000  27.0000 Du        
  24332 ****         2.2500   8.5000  27.2500 Du        
  24333 ****         2.2500   8.5000  27.5000 Du        
  24334 ****         2.2500   8.5000  27.7500 Du        
  24335 ****         2.2500   8.5000  28.0000 Du        
  24336 ****         2.2500   8.5000  28.2500 Du        
  24337 ****         2.2500   8.7500  25.0000 Du        
  24338 ****         2.2500   8.7500  25.2500 Du        
  24339 ****         2.2500   8.7500  25.5000 Du        
  24340 ****         2.2500   8.7500  25.7500 Du        
  24341 ****         2.2500   8.7500  26.0000 Du        
  24342 ****         2.2500   8.7500  26.2500 Du        
  24343 ****         2.2500   8.7500  26.5000 Du        
  24344 ****         2.2500   8.7500  26.7500 Du        
  24345 ****         2.2500   8.7500  27.0000 Du        
  24346 ****         2.2500   8.7500  27.2500 Du        
  24347 ****         2.2500   8.7500  27.5000 Du        
  24348 ****         2.2500   8.7500  27.7500 Du        
  24349 ****         2.2500   8.7500  28.0000 Du        
  24350 ****         2.2500   8.7500  28.2500 Du        
  24351 ****         2.2500   8.7500  28.5000 Du        
  24352 ****         2.2500   8.7500  28.7500 Du        
  24353 ****         2.2500   9.0000  24.5000 Du        
  24354 ****         2.2500   9.0000  24.7500 Du        
  24355 ****         2.2500   9.0000  25.0000 Du        
  24356 ****         2.2500   9.0000  25.2500 Du        
  24357 ****         2.2500   9.0000  25.5000 Du        
  24358 ****         2.2500   9.0000  25.7500 Du        
  24359 ****         2.2500   9.0000  26.0000 Du        
  24360 ****         2.2500   9.0000  26.2500 Du        
  24361 ****         2.2500   9.0000  26.5000 Du        
  24362 ****         2.2500   9.0000  26.7500 Du        
  24363 ****         2.2500   9.0000  27.0000 Du        
  24364 ****         2.2500   9.0000  27.2500 Du        
  24365 ****         2.2500   9.0000  27.5000 Du        
  24366 ****         2.2500   9.0000  27.7500 Du        
  24367 ****         2.2500   9.0000  28.0000 Du        
  24368 ****         2.2500   9.0000  28.2500 Du        
  24369 ****         2.2500   9.0000  28.5000 Du        
  24370 ****         2.2500   9.0000  28.7500 Du        
  24371 ****         2.2500   9.2500  24.5000 Du        
  24372 ****         2.2500   9.2500  24.7500 Du        
  24373 ****         2.2500   9.2500  25.0000 Du        
  24374 ****         2.2500   9.2500  25.2500 Du        
  24375 ****         2.2500   9.2500  25.5000 Du        
  24376 ****         2.2500   9.2500  25.7500 Du        
  24377 ****         2.2500   9.2500  26.0000 Du        
  24378 ****         2.2500   9.2500  26.2500 Du        
  24379 ****         2.2500   9.2500  26.5000 Du        
  24380 ****         2.2500   9.2500  26.7500 Du        
  24381 ****         2.2500   9.2500  27.0000 Du        
  24382 ****         2.2500   9.2500  27.2500 Du        
  24383 ****         2.2500   9.2500  27.5000 Du        
  24384 ****         2.2500   9.2500  27.7500 Du        
  24385 ****         2.2500   9.2500  28.0000 Du        
  24386 ****         2.2500   9.2500  28.2500 Du        
  24387 ****         2.2500   9.5000  24.5000 Du        
  24388 ****         2.2500   9.5000  24.7500 Du        
  24389 ****         2.2500   9.5000  25.0000 Du        
  24390 ****         2.2500   9.5000  25.2500 Du        
  24391 ****         2.2500   9.5000  25.5000 Du        
  24392 ****         2.2500   9.5000  25.7500 Du        
  24393 ****         2.2500   9.5000  26.0000 Du        
  24394 ****         2.2500   9.5000  26.2500 Du        
  24395 ****         2.2500   9.5000  26.5000 Du        
  24396 ****         2.2500   9.5000  26.7500 Du        
  24397 ****         2.2500   9.5000  27.0000 Du        
  24398 ****         2.2500   9.5000  27.2500 Du        
  24399 ****         2.2500   9.5000  27.5000 Du        
  24400 ****         2.2500   9.5000  27.7500 Du        
  24401 ****         2.2500   9.5000  28.0000 Du        
  24402 ****         2.2500   9.5000  28.2500 Du        
  24403 ****         2.2500   9.7500  24.5000 Du        
  24404 ****         2.2500   9.7500  24.7500 Du        
  24405 ****         2.2500   9.7500  25.0000 Du        
  24406 ****         2.2500   9.7500  25.2500 Du        
  24407 ****         2.2500   9.7500  25.7500 Du        
  24408 ****         2.2500   9.7500  26.5000 Du        
  24409 ****         2.2500   9.7500  26.7500 Du        
  24410 ****         2.2500   9.7500  27.0000 Du        
  24411 ****         2.2500   9.7500  27.2500 Du        
  24412 ****         2.2500   9.7500  27.5000 Du        
  24413 ****         2.2500   9.7500  27.7500 Du        
  24414 ****         2.5000 -16.7500  29.2500 Du        
  24415 ****         2.5000 -16.7500  29.5000 Du        
  24416 ****         2.5000 -16.7500  29.7500 Du        
  24417 ****         2.5000 -16.7500  30.0000 Du        
  24418 ****         2.5000 -16.5000  29.0000 Du        
  24419 ****         2.5000 -16.5000  29.2500 Du        
  24420 ****         2.5000 -16.5000  29.5000 Du        
  24421 ****         2.5000 -16.5000  29.7500 Du        
  24422 ****         2.5000 -16.2500  29.0000 Du        
  24423 ****         2.5000 -16.2500  29.2500 Du        
  24424 ****         2.5000 -16.2500  29.5000 Du        
  24425 ****         2.5000 -16.0000  29.2500 Du        
  24426 ****         2.5000   8.5000  26.7500 Du        
  24427 ****         2.5000   8.5000  27.0000 Du        
  24428 ****         2.5000   8.5000  27.2500 Du        
  24429 ****         2.5000   8.5000  27.5000 Du        
  24430 ****         2.5000   8.5000  27.7500 Du        
  24431 ****         2.5000   8.5000  28.0000 Du        
  24432 ****         2.5000   8.5000  28.2500 Du        
  24433 ****         2.5000   8.7500  26.0000 Du        
  24434 ****         2.5000   8.7500  26.2500 Du        
  24435 ****         2.5000   8.7500  26.5000 Du        
  24436 ****         2.5000   8.7500  26.7500 Du        
  24437 ****         2.5000   8.7500  27.0000 Du        
  24438 ****         2.5000   8.7500  27.2500 Du        
  24439 ****         2.5000   8.7500  27.5000 Du        
  24440 ****         2.5000   8.7500  27.7500 Du        
  24441 ****         2.5000   8.7500  28.0000 Du        
  24442 ****         2.5000   8.7500  28.2500 Du        
  24443 ****         2.5000   8.7500  28.5000 Du        
  24444 ****         2.5000   9.0000  24.7500 Du        
  24445 ****         2.5000   9.0000  25.0000 Du        
  24446 ****         2.5000   9.0000  25.2500 Du        
  24447 ****         2.5000   9.0000  25.5000 Du        
  24448 ****         2.5000   9.0000  25.7500 Du        
  24449 ****         2.5000   9.0000  26.0000 Du        
  24450 ****         2.5000   9.0000  26.2500 Du        
  24451 ****         2.5000   9.0000  26.5000 Du        
  24452 ****         2.5000   9.0000  26.7500 Du        
  24453 ****         2.5000   9.0000  27.0000 Du        
  24454 ****         2.5000   9.0000  27.2500 Du        
  24455 ****         2.5000   9.0000  27.5000 Du        
  24456 ****         2.5000   9.0000  27.7500 Du        
  24457 ****         2.5000   9.0000  28.0000 Du        
  24458 ****         2.5000   9.0000  28.2500 Du        
  24459 ****         2.5000   9.0000  28.5000 Du        
  24460 ****         2.5000   9.2500  24.5000 Du        
  24461 ****         2.5000   9.2500  24.7500 Du        
  24462 ****         2.5000   9.2500  25.0000 Du        
  24463 ****         2.5000   9.2500  25.2500 Du        
  24464 ****         2.5000   9.2500  25.5000 Du        
  24465 ****         2.5000   9.2500  25.7500 Du        
  24466 ****         2.5000   9.2500  26.0000 Du        
  24467 ****         2.5000   9.2500  26.2500 Du        
  24468 ****         2.5000   9.2500  26.5000 Du        
  24469 ****         2.5000   9.2500  26.7500 Du        
  24470 ****         2.5000   9.2500  27.0000 Du        
  24471 ****         2.5000   9.2500  27.2500 Du        
  24472 ****         2.5000   9.2500  27.5000 Du        
  24473 ****         2.5000   9.2500  27.7500 Du        
  24474 ****         2.5000   9.2500  28.0000 Du        
  24475 ****         2.5000   9.2500  28.2500 Du        
  24476 ****         2.5000   9.5000  24.5000 Du        
  24477 ****         2.5000   9.5000  24.7500 Du        
  24478 ****         2.5000   9.5000  25.0000 Du        
  24479 ****         2.5000   9.5000  25.2500 Du        
  24480 ****         2.5000   9.5000  25.5000 Du        
  24481 ****         2.5000   9.5000  25.7500 Du        
  24482 ****         2.5000   9.5000  26.0000 Du        
  24483 ****         2.5000   9.5000  26.2500 Du        
  24484 ****         2.5000   9.5000  26.5000 Du        
  24485 ****         2.5000   9.5000  26.7500 Du        
  24486 ****         2.5000   9.5000  27.0000 Du        
  24487 ****         2.5000   9.5000  27.2500 Du        
  24488 ****         2.5000   9.5000  27.5000 Du        
  24489 ****         2.5000   9.5000  27.7500 Du        
  24490 ****         2.5000   9.5000  28.0000 Du        
  24491 ****         2.5000   9.5000  28.2500 Du        
  24492 ****         2.5000   9.7500  24.5000 Du        
  24493 ****         2.5000   9.7500  24.7500 Du        
  24494 ****         2.5000   9.7500  25.0000 Du        
  24495 ****         2.5000   9.7500  25.2500 Du        
  24496 ****         2.5000   9.7500  25.5000 Du        
  24497 ****         2.5000   9.7500  25.7500 Du        
  24498 ****         2.5000   9.7500  26.0000 Du        
  24499 ****         2.5000   9.7500  26.2500 Du        
  24500 ****         2.5000   9.7500  26.5000 Du        
  24501 ****         2.5000   9.7500  26.7500 Du        
  24502 ****         2.5000   9.7500  27.0000 Du        
  24503 ****         2.5000   9.7500  27.2500 Du        
  24504 ****         2.5000   9.7500  27.5000 Du        
  24505 ****         2.5000   9.7500  27.7500 Du        
  24506 ****         2.5000   9.7500  28.0000 Du        
  24507 ****         2.7500 -16.7500  29.2500 Du        
  24508 ****         2.7500 -16.7500  29.5000 Du        
  24509 ****         2.7500 -16.7500  29.7500 Du        
  24510 ****         2.7500 -16.5000  28.7500 Du        
  24511 ****         2.7500 -16.5000  29.0000 Du        
  24512 ****         2.7500 -16.5000  29.2500 Du        
  24513 ****         2.7500 -16.2500  28.7500 Du        
  24514 ****         2.7500 -16.2500  29.0000 Du        
  24515 ****         2.7500 -16.2500  29.2500 Du        
  24516 ****         2.7500 -16.0000  28.7500 Du        
  24517 ****         2.7500 -16.0000  29.0000 Du        
  24518 ****         2.7500 -16.0000  29.2500 Du        
  24519 ****         2.7500 -15.7500  29.0000 Du        
  24520 ****         2.7500   4.0000  33.2500 Du        
  24521 ****         2.7500   4.0000  33.5000 Du        
  24522 ****         2.7500   4.2500  33.0000 Du        
  24523 ****         2.7500   4.2500  33.2500 Du        
  24524 ****         2.7500   4.2500  33.5000 Du        
  24525 ****         2.7500   4.2500  33.7500 Du        
  24526 ****         2.7500   8.5000  26.7500 Du        
  24527 ****         2.7500   8.5000  27.0000 Du        
  24528 ****         2.7500   8.5000  27.2500 Du        
  24529 ****         2.7500   8.5000  27.5000 Du        
  24530 ****         2.7500   8.5000  27.7500 Du        
  24531 ****         2.7500   8.5000  28.0000 Du        
  24532 ****         2.7500   8.7500  26.2500 Du        
  24533 ****         2.7500   8.7500  26.5000 Du        
  24534 ****         2.7500   8.7500  26.7500 Du        
  24535 ****         2.7500   8.7500  27.0000 Du        
  24536 ****         2.7500   8.7500  27.2500 Du        
  24537 ****         2.7500   8.7500  27.5000 Du        
  24538 ****         2.7500   8.7500  27.7500 Du        
  24539 ****         2.7500   8.7500  28.0000 Du        
  24540 ****         2.7500   8.7500  28.2500 Du        
  24541 ****         2.7500   9.0000  25.0000 Du        
  24542 ****         2.7500   9.0000  25.2500 Du        
  24543 ****         2.7500   9.0000  25.5000 Du        
  24544 ****         2.7500   9.0000  25.7500 Du        
  24545 ****         2.7500   9.0000  26.0000 Du        
  24546 ****         2.7500   9.0000  26.2500 Du        
  24547 ****         2.7500   9.0000  26.5000 Du        
  24548 ****         2.7500   9.0000  26.7500 Du        
  24549 ****         2.7500   9.0000  27.0000 Du        
  24550 ****         2.7500   9.0000  27.2500 Du        
  24551 ****         2.7500   9.0000  27.5000 Du        
  24552 ****         2.7500   9.0000  27.7500 Du        
  24553 ****         2.7500   9.0000  28.0000 Du        
  24554 ****         2.7500   9.0000  28.2500 Du        
  24555 ****         2.7500   9.0000  28.5000 Du        
  24556 ****         2.7500   9.2500  24.5000 Du        
  24557 ****         2.7500   9.2500  24.7500 Du        
  24558 ****         2.7500   9.2500  25.0000 Du        
  24559 ****         2.7500   9.2500  25.2500 Du        
  24560 ****         2.7500   9.2500  25.5000 Du        
  24561 ****         2.7500   9.2500  25.7500 Du        
  24562 ****         2.7500   9.2500  26.0000 Du        
  24563 ****         2.7500   9.2500  26.2500 Du        
  24564 ****         2.7500   9.2500  26.5000 Du        
  24565 ****         2.7500   9.2500  26.7500 Du        
  24566 ****         2.7500   9.2500  27.0000 Du        
  24567 ****         2.7500   9.2500  27.2500 Du        
  24568 ****         2.7500   9.2500  27.5000 Du        
  24569 ****         2.7500   9.2500  27.7500 Du        
  24570 ****         2.7500   9.2500  28.0000 Du        
  24571 ****         2.7500   9.2500  28.2500 Du        
  24572 ****         2.7500   9.2500  28.5000 Du        
  24573 ****         2.7500   9.5000  24.5000 Du        
  24574 ****         2.7500   9.5000  24.7500 Du        
  24575 ****         2.7500   9.5000  25.0000 Du        
  24576 ****         2.7500   9.5000  25.2500 Du        
  24577 ****         2.7500   9.5000  25.5000 Du        
  24578 ****         2.7500   9.5000  25.7500 Du        
  24579 ****         2.7500   9.5000  26.0000 Du        
  24580 ****         2.7500   9.5000  26.2500 Du        
  24581 ****         2.7500   9.5000  26.5000 Du        
  24582 ****         2.7500   9.5000  26.7500 Du        
  24583 ****         2.7500   9.5000  27.0000 Du        
  24584 ****         2.7500   9.5000  27.2500 Du        
  24585 ****         2.7500   9.5000  27.5000 Du        
  24586 ****         2.7500   9.5000  27.7500 Du        
  24587 ****         2.7500   9.5000  28.0000 Du        
  24588 ****         2.7500   9.5000  28.2500 Du        
  24589 ****         2.7500   9.5000  28.5000 Du        
  24590 ****         2.7500   9.7500  24.5000 Du        
  24591 ****         2.7500   9.7500  24.7500 Du        
  24592 ****         2.7500   9.7500  25.0000 Du        
  24593 ****         2.7500   9.7500  25.2500 Du        
  24594 ****         2.7500   9.7500  25.5000 Du        
  24595 ****         2.7500   9.7500  25.7500 Du        
  24596 ****         2.7500   9.7500  26.0000 Du        
  24597 ****         2.7500   9.7500  26.2500 Du        
  24598 ****         2.7500   9.7500  26.5000 Du        
  24599 ****         2.7500   9.7500  26.7500 Du        
  24600 ****         2.7500   9.7500  27.0000 Du        
  24601 ****         2.7500   9.7500  27.2500 Du        
  24602 ****         2.7500   9.7500  27.5000 Du        
  24603 ****         2.7500   9.7500  27.7500 Du        
  24604 ****         2.7500   9.7500  28.0000 Du        
  24605 ****         2.7500   9.7500  28.2500 Du        
  24606 ****         2.7500  10.0000  27.0000 Du        
  24607 ****         2.7500  10.0000  27.2500 Du        
  24608 ****         2.7500  10.0000  27.5000 Du        
  24609 ****         2.7500  10.0000  27.7500 Du        
