#       Name:                CT1002167954
#       Creating user name   hitesit
#       Creation time:       Sun Apr 16 22:52:03 2023


#       File generated by GOLD software.
#

@<TRIPOS>MOLECULE
CT1002167954|ligand_prepared|mol2|1|dock7
    29    30     1
SMALL
NO_CHARGES


@<TRIPOS>ATOM
      1 C1         -14.4081   5.3671  16.2406 C.3            1 RES1               0.0000
      2 C2         -13.7916   4.2609  17.1209 C.ar           1 RES1               0.0000
      3 C3         -13.2380   6.0961  15.5865 C.2            1 RES1               0.0000
      4 C4         -15.3316   4.6618  15.2535 C.2            1 RES1               0.0000
      5 C5         -15.2494   6.3973  17.0295 C.3            1 RES1               0.0000
      6 C6         -12.5610   3.6990  16.7945 C.ar           1 RES1               0.0000
      7 C7         -14.4392   3.7947  18.2619 C.ar           1 RES1               0.0000
      8 N8         -13.0119   5.8669  14.2613 N.am           1 RES1               0.0000
      9 O9         -12.5008   6.8302  16.2329 O.2            1 RES1               0.0000
     10 N10        -15.0030   4.7042  13.9239 N.am           1 RES1               0.0000
     11 O11        -16.3320   4.0556  15.6170 O.2            1 RES1               0.0000
     12 C12        -15.6965   7.5894  16.1981 C.3            1 RES1               0.0000
     13 C13        -11.9967   2.7090  17.5818 C.ar           1 RES1               0.0000
     14 C14        -13.8733   2.8044  19.0477 C.ar           1 RES1               0.0000
     15 C15        -13.8686   5.2486  13.3863 C.2            1 RES1               0.0000
     16 C16        -12.6521   2.2614  18.7090 C.ar           1 RES1               0.0000
     17 O17        -13.6167   5.1994  12.1858 O.2            1 RES1               0.0000
     18 H18        -16.1374   5.8942  17.4316 H              1 RES1               0.0000
     19 H19        -14.6571   6.7611  17.8782 H              1 RES1               0.0000
     20 H20        -12.0316   4.0369  15.9098 H              1 RES1               0.0000
     21 H21        -15.4013   4.2066  18.5470 H              1 RES1               0.0000
     22 H22        -12.1238   6.1844  13.8862 H              1 RES1               0.0000
     23 H23        -15.6654   4.2918  13.2747 H              1 RES1               0.0000
     24 H24        -16.2828   8.2809  16.7995 H              1 RES1               0.0000
     25 H25        -14.8376   8.1280  15.8031 H              1 RES1               0.0000
     26 H26        -16.3092   7.2663  15.3590 H              1 RES1               0.0000
     27 H27        -11.0361   2.2840  17.3102 H              1 RES1               0.0000
     28 H28        -14.3930   2.4547  19.9336 H              1 RES1               0.0000
     29 H29        -12.2097   1.4861  19.3258 H              1 RES1               0.0000
@<TRIPOS>BOND
    1    1    2 1     
    2    1    3 1     
    3    1    4 1     
    4    1    5 1     
    5    2    6 ar    
    6    2    7 ar    
    7    3    8 1     
    8    3    9 2     
    9    4   10 1     
   10    4   11 2     
   11    5   12 1     
   12    5   18 1     
   13    5   19 1     
   14    6   13 ar    
   15    6   20 1     
   16    7   14 ar    
   17    7   21 1     
   18    8   15 1     
   19    8   22 1     
   20   10   15 1     
   21   10   23 1     
   22   12   24 1     
   23   12   25 1     
   24   12   26 1     
   25   13   16 ar    
   26   13   27 1     
   27   14   16 ar    
   28   14   28 1     
   29   15   17 2     
   30   16   29 1     
@<TRIPOS>SUBSTRUCTURE
      1 RES1           1
@<TRIPOS>SET
DONOR_HYDROGENS      STATIC     ATOMS    <user>   **** ""
2 22 23
ATOM$RED        STATIC     ATOMS    COLORGROUP SYSTEM
2 22 23
@<TRIPOS>COMMENT
> <Gold.Version>
2022.3.0

> <Gold.Id.Protein>
unknown|3mvj_clean|pdb

> <Gold.Protein.RotatedTorsions>
[ 11826 11799 11798 11795 ] final  115.16 input   60.01 | X-H torsion
[ 11911 11856 11855 11854 ] final   51.63 input   60.02 | X-H torsion
[ 10977 10959 10958 10956 ] final  164.30 input   60.00 | X-H torsion
[ 10969 10948 10949 10950 ] final -170.33 input   32.02 | X-H torsion
[ 10737 10719 10718 10716 ] final  155.79 input   60.01 | X-H torsion
[ 12076 12056 12057 12058 ] final   36.60 input   63.02 | X-H torsion
[ 10918 10911 10912 10913 ] final  111.17 input  -92.90 | X-H torsion
[ 6164 6140 6141 6142 ] final  -50.13 input   39.58 | X-H torsion
[ 6112 6105 6106 6107 ] final  121.98 input  -69.34 | X-H torsion
[ 5955 5918 5919 5920 ] final  152.27 input  125.26 | X-H torsion
[ 6027 5990 5991 5992 ] final -173.48 input  110.40 | X-H torsion
[ 6075 6056 6057 6058 ] final  -89.82 input  107.04 | X-H torsion
[ 11686 11631 11630 11629 ] final  -25.68 input   60.02 | X-H torsion
[ 11211 11201 11202 11203 ] final  -47.16 input   18.84 | X-H torsion
[ 11249 11237 11238 11239 ] final  -62.99 input  111.29 | X-H torsion
[ 11173 11153 11154 11155 ] final  102.27 input   30.50 | X-H torsion
[ 11292 11275 11276 11277 ] final  -44.21 input   58.53 | X-H torsion
[ 9451 9430 9431 9432 ] final  157.89 input  110.06 | X-H torsion
[ 11493 11474 11475 11476 ] final  159.62 input  115.95 | X-H torsion
[ 11385 11366 11367 11368 ] final  -83.27 input  117.79 | X-H torsion
[ 11568 11550 11549 11547 ] final  126.11 input   59.97 | X-H torsion
[ 9369 9348 9346 9343 ] final   72.55 input   60.02 | X-H torsion
[ 9511 9481 9482 9483 ] final -154.85 input   75.78 | X-H torsion
[ 15475 15466 15465 15463 ] final  116.26 input   60.00 | X-H torsion
[ 7755 7731 7730 7729 ] final  -93.25 input   60.02 | X-H torsion
[ 7846 7831 7832 7833 ] final  -88.68 input  113.97 | X-H torsion
[ 5737 5717 5718 5719 ] final  111.14 input  137.93 | X-H torsion
[ 5778 5767 5768 5769 ] final -149.43 input  116.46 | X-H torsion
[ 1839 1818 1819 1820 ] final  -63.44 input   43.70 | X-H torsion
[ 5782 5772 5771 5768 ] final  168.02 input   59.97 | X-H torsion
[ 15411 15403 15404 15405 ] final  -45.74 input  102.24 | X-H torsion
[ 1801 1791 1792 1793 ] final  -36.08 input  -10.55 | X-H torsion
[ 5632 5617 5618 5619 ] final  108.51 input   93.34 | X-H torsion
[ 7884 7874 7875 7876 ] final  143.63 input   68.03 | X-H torsion
[ 1845 1824 1822 1819 ] final -116.01 input   60.02 | X-H torsion
[ 1864 1854 1855 1856 ] final -167.86 input   57.50 | X-H torsion
[ 9363 9342 9343 9344 ] final  113.04 input   55.58 | X-H torsion
[ 9519 9492 9491 9489 ] final  151.32 input   60.02 | X-H torsion
[ 7745 7723 7724 7725 ] final -129.97 input   17.81 | X-H torsion
[ 1896 1884 1883 1880 ] final   44.30 input   60.01 | X-H torsion
[ 9325 9315 9316 9317 ] final  160.39 input  -36.21 | X-H torsion
[ 1892 1879 1880 1881 ] final -170.71 input   98.21 | X-H torsion
[ 9302 9286 9287 9288 ] final -178.30 input   37.00 | X-H torsion
[ 9263 9233 9234 9235 ] final   97.16 input   95.32 | X-H torsion
[ 3370 3362 3363 3364 ] final   24.60 input   97.92 | X-H torsion
[ 1947 1922 1923 1924 ] final   92.98 input  104.43 | X-H torsion
[ 12159 12148 12149 12150 ] final   90.48 input  116.04 | X-H torsion
[ 11673 11649 11648 11647 ] final -169.68 input   59.99 | X-H torsion
[ 12008 11984 11985 11986 ] final  -16.75 input   61.04 | X-H torsion
[ 11113 11093 11094 11095 ] final  -42.34 input   39.50 | X-H torsion
[ 7924 7916 7917 7918 ] final  -18.03 input   66.66 | X-H torsion
[ 8650 8630 8631 8632 ] final  166.48 input   75.31 | X-H torsion
[ 9566 9536 9537 9538 ] final -138.74 input  103.50 | X-H torsion
[ 16472 10886 10885 10884 ] final    3.18 input    0.00 | X-H torsion
[ 16475 11004 11003 11002 ] final    6.75 input    0.00 | X-H torsion
[ 16477 10914 10913 10912 ] final  -41.09 input    0.00 | X-H torsion
[ 16479 10951 10950 10949 ] final -157.79 input   -0.00 | X-H torsion
[ 16484 11987 11986 11985 ] final  -44.53 input    0.00 | X-H torsion
[ 16486 12059 12058 12057 ] final  137.56 input   -0.00 | X-H torsion
[ 16490 11046 11045 11044 ] final -138.00 input    0.00 | X-H torsion
[ 16500 6108 6107 6106 ] final -160.71 input    0.00 | X-H torsion
[ 16503 5921 5920 5919 ] final   17.74 input   -0.00 | X-H torsion
[ 16506 6059 6058 6057 ] final  -51.06 input    0.00 | X-H torsion
[ 16510 5858 5857 5856 ] final  -69.31 input    0.00 | X-H torsion
[ 16518 5993 5992 5991 ] final   99.39 input   -0.00 | X-H torsion
[ 16523 11156 11155 11154 ] final   35.40 input    0.00 | X-H torsion
[ 16528 11204 11203 11202 ] final  159.94 input    0.00 | X-H torsion
[ 16540 11096 11095 11094 ] final  175.35 input   -0.00 | X-H torsion
[ 16544 10768 10767 10766 ] final   53.80 input   -0.00 | X-H torsion
[ 16552 11240 11239 11238 ] final  -77.77 input    0.00 | X-H torsion
[ 16558 11278 11277 11276 ] final  -76.28 input   -0.00 | X-H torsion
[ 16562 11325 11324 11323 ] final  126.21 input   -0.00 | X-H torsion
[ 16566 9387 9386 9385 ] final  137.40 input   -0.00 | X-H torsion
[ 16570 9345 9344 9343 ] final  -52.46 input    0.00 | X-H torsion
[ 16579 5720 5719 5718 ] final   23.54 input    0.00 | X-H torsion
[ 16592 1821 1820 1819 ] final  145.68 input    0.00 | X-H torsion
[ 16594 7834 7833 7832 ] final  -70.89 input    0.00 | X-H torsion
[ 16600 1745 1744 1743 ] final  161.16 input    0.00 | X-H torsion
[ 16608 5620 5619 5618 ] final   10.63 input   -0.00 | X-H torsion
[ 16610 7788 7787 7786 ] final -128.53 input   -0.00 | X-H torsion
[ 16613 1794 1793 1792 ] final  170.98 input   -0.00 | X-H torsion
[ 16622 9318 9317 9316 ] final -151.06 input   -0.00 | X-H torsion
[ 16627 9433 9432 9431 ] final  168.19 input    0.00 | X-H torsion
[ 16631 7667 7666 7665 ] final   83.71 input   -0.00 | X-H torsion
[ 16635 7726 7725 7724 ] final -134.20 input    0.00 | X-H torsion
[ 16637 10539 10538 10537 ] final  -16.30 input   -0.00 | X-H torsion
[ 16643 1857 1856 1855 ] final  110.47 input    0.00 | X-H torsion
[ 16645 7565 7564 7563 ] final   97.73 input    0.00 | X-H torsion
[ 16647 9289 9288 9287 ] final -142.60 input    0.00 | X-H torsion
[ 16649 9236 9235 9234 ] final -132.90 input    0.00 | X-H torsion
[ 16655 3365 3364 3363 ] final  103.32 input    0.00 | X-H torsion

> <Gold.Protein.ActiveResidues>
 LEU49   GLY50   THR51   GLY52   SER53   PHE54   VAL57   LEU82   LYS83   GLN84  
 HIS87   GLU127  PHE129  SER130  LEU132  ARG133  ARG134  ILE135  GLY136  ARG137 
 ARG165  ASP166  LEU167  LYS168  PRO169  GLU170  ASN171  LEU172  LEU173  ASP184 
 GLY186  PHE187  TPO197  LEU198  CYS199  GLY200  THR201  PRO202  GLU203  TYR204 
 LEU205  ILE209  ILE210  VAL226  LEU227  TYR229  GLU230  ALA233  GLY234  TYR235 
 PRO236  PRO237  PHE238  PHE239  ALA240  ASP241  GLN242  PRO243  ILE244  GLN245 
 ILE246  TYR247  GLU248  LYS249  ILE250  VAL251  SER252  LYS254  ARG256  PHE257 
 PRO258  SER259  PHE327  ASP328  TYR330 

> <Gold.Protein.RotatedAtoms>
    1.5873  -14.2266   21.7726 H   0  0  0  0  0  0  0  0  0  0  0  0  # atno 1801 bound_to 1791
   -1.5640  -14.5383   23.7830 H   0  0  0  0  0  0  0  0  0  0  0  0  # atno 1839 bound_to 1818
   -0.1516  -13.4817   28.3722 H   0  0  0  0  0  0  0  0  0  0  0  0  # atno 1845 bound_to 1824
   -2.9274  -15.5588   26.2803 H   0  0  0  0  0  0  0  0  0  0  0  0  # atno 1864 bound_to 1854
   -4.5537  -16.0527   30.1446 H   0  0  0  0  0  0  0  0  0  0  0  0  # atno 1892 bound_to 1879
   -5.9287  -15.7867   31.4404 H   0  0  0  0  0  0  0  0  0  0  0  0  # atno 1896 bound_to 1884
   -4.8902  -19.2403   29.8517 H   0  0  0  0  0  0  0  0  0  0  0  0  # atno 1947 bound_to 1922
   -8.0475  -25.0987   35.8280 H   0  0  0  0  0  0  0  0  0  0  0  0  # atno 3370 bound_to 3362
   -3.9184   -9.9233   14.2501 H   0  0  0  0  0  0  0  0  0  0  0  0  # atno 5632 bound_to 5617
   -8.4782   -8.4363   14.9676 H   0  0  0  0  0  0  0  0  0  0  0  0  # atno 5737 bound_to 5717
   -6.8021   -5.9337   16.4012 H   0  0  0  0  0  0  0  0  0  0  0  0  # atno 5778 bound_to 5767
   -3.0430   -6.2837   14.0325 H   0  0  0  0  0  0  0  0  0  0  0  0  # atno 5782 bound_to 5772
   -9.1802   -2.4772   15.2629 H   0  0  0  0  0  0  0  0  0  0  0  0  # atno 5955 bound_to 5918
   -6.6436   -0.0746   15.2379 H   0  0  0  0  0  0  0  0  0  0  0  0  # atno 6027 bound_to 5990
   -6.9880    1.8218   12.2325 H   0  0  0  0  0  0  0  0  0  0  0  0  # atno 6075 bound_to 6056
   -9.7222    2.9258   11.8187 H   0  0  0  0  0  0  0  0  0  0  0  0  # atno 6112 bound_to 6105
  -12.1456    1.8242   11.4048 H   0  0  0  0  0  0  0  0  0  0  0  0  # atno 6164 bound_to 6140
  -16.1058  -13.0902   17.9916 H   0  0  0  0  0  0  0  0  0  0  0  0  # atno 7745 bound_to 7723
  -11.1414  -12.0360   24.0062 H   0  0  0  0  0  0  0  0  0  0  0  0  # atno 7755 bound_to 7731
  -12.7684  -11.9220   24.3013 H   0  0  0  0  0  0  0  0  0  0  0  0  # atno 7756 bound_to 7731
  -11.9814  -13.3618   24.5397 H   0  0  0  0  0  0  0  0  0  0  0  0  # atno 7757 bound_to 7731
  -10.5319   -9.8518   16.8188 H   0  0  0  0  0  0  0  0  0  0  0  0  # atno 7846 bound_to 7831
  -10.6240  -12.7303   18.3262 H   0  0  0  0  0  0  0  0  0  0  0  0  # atno 7884 bound_to 7874
   -9.3091  -13.5235   15.3353 H   0  0  0  0  0  0  0  0  0  0  0  0  # atno 7924 bound_to 7916
  -13.1431  -22.0078   23.8948 H   0  0  0  0  0  0  0  0  0  0  0  0  # atno 8650 bound_to 8630
  -21.2461  -21.0838   32.1132 H   0  0  0  0  0  0  0  0  0  0  0  0  # atno 9263 bound_to 9233
  -19.7098  -19.4382   30.0698 H   0  0  0  0  0  0  0  0  0  0  0  0  # atno 9302 bound_to 9286
  -18.3392  -17.5122   27.1892 H   0  0  0  0  0  0  0  0  0  0  0  0  # atno 9325 bound_to 9315
  -16.9820  -13.9708   24.7562 H   0  0  0  0  0  0  0  0  0  0  0  0  # atno 9363 bound_to 9342
  -15.1034  -13.8574   24.1746 H   0  0  0  0  0  0  0  0  0  0  0  0  # atno 9369 bound_to 9348
  -17.9057   -7.9231   26.2021 H   0  0  0  0  0  0  0  0  0  0  0  0  # atno 9451 bound_to 9430
  -19.4462   -8.6712   23.2809 H   0  0  0  0  0  0  0  0  0  0  0  0  # atno 9511 bound_to 9481
  -17.0051   -8.1501   17.2391 H   0  0  0  0  0  0  0  0  0  0  0  0  # atno 9519 bound_to 9492
  -20.7785  -11.6636   24.1046 H   0  0  0  0  0  0  0  0  0  0  0  0  # atno 9566 bound_to 9536
  -24.7334    1.5182   17.5709 H   0  0  0  0  0  0  0  0  0  0  0  0  # atno 10737 bound_to 10719
  -17.3865    1.6075   13.9257 H   0  0  0  0  0  0  0  0  0  0  0  0  # atno 10918 bound_to 10911
  -16.0628    1.1325   16.8009 H   0  0  0  0  0  0  0  0  0  0  0  0  # atno 10969 bound_to 10948
  -21.4026    5.6752   17.1088 H   0  0  0  0  0  0  0  0  0  0  0  0  # atno 10977 bound_to 10959
  -21.9939   -1.8473   22.3025 H   0  0  0  0  0  0  0  0  0  0  0  0  # atno 11113 bound_to 11093
  -21.2185   -0.8240   24.6031 H   0  0  0  0  0  0  0  0  0  0  0  0  # atno 11173 bound_to 11153
  -18.2896   -0.6129   27.6676 H   0  0  0  0  0  0  0  0  0  0  0  0  # atno 11211 bound_to 11201
  -17.6263    0.1029   30.5217 H   0  0  0  0  0  0  0  0  0  0  0  0  # atno 11249 bound_to 11237
  -17.1739   -1.4128   32.0702 H   0  0  0  0  0  0  0  0  0  0  0  0  # atno 11292 bound_to 11275
  -19.9125   -6.3210   33.3679 H   0  0  0  0  0  0  0  0  0  0  0  0  # atno 11385 bound_to 11366
  -21.2032   -3.2315   31.3322 H   0  0  0  0  0  0  0  0  0  0  0  0  # atno 11493 bound_to 11474
  -18.7433  -10.0693   32.3959 H   0  0  0  0  0  0  0  0  0  0  0  0  # atno 11568 bound_to 11550
  -24.4990    3.0215   27.5561 H   0  0  0  0  0  0  0  0  0  0  0  0  # atno 11673 bound_to 11649
  -25.5545    2.1161   28.4591 H   0  0  0  0  0  0  0  0  0  0  0  0  # atno 11674 bound_to 11649
  -24.0685    2.5156   29.0754 H   0  0  0  0  0  0  0  0  0  0  0  0  # atno 11675 bound_to 11649
   -7.9019    8.7437   25.5785 H   0  0  0  0  0  0  0  0  0  0  0  0  # atno 11686 bound_to 11631
   -8.6416    9.1916   26.9920 H   0  0  0  0  0  0  0  0  0  0  0  0  # atno 11687 bound_to 11631
   -9.2968    7.9883   26.0602 H   0  0  0  0  0  0  0  0  0  0  0  0  # atno 11688 bound_to 11631
  -13.6070   16.1964   23.5849 H   0  0  0  0  0  0  0  0  0  0  0  0  # atno 11826 bound_to 11799
  -17.7252   14.9644   25.2715 H   0  0  0  0  0  0  0  0  0  0  0  0  # atno 11911 bound_to 11856
  -18.1916   16.3523   24.4942 H   0  0  0  0  0  0  0  0  0  0  0  0  # atno 11912 bound_to 11856
  -16.8232   15.5512   24.0103 H   0  0  0  0  0  0  0  0  0  0  0  0  # atno 11913 bound_to 11856
  -28.2380    0.5094   19.1473 H   0  0  0  0  0  0  0  0  0  0  0  0  # atno 12008 bound_to 11984
  -28.2632    4.0029   16.8148 H   0  0  0  0  0  0  0  0  0  0  0  0  # atno 12076 bound_to 12056
  -24.2883    7.7781   12.9589 H   0  0  0  0  0  0  0  0  0  0  0  0  # atno 12159 bound_to 12148
    2.0884   -8.1862   17.2333 H   0  0  0  0  0  0  0  0  0  0  0  0  # atno 15411 bound_to 15403
   -2.1126  -10.7680   21.9467 H   0  0  0  0  0  0  0  0  0  0  0  0  # atno 15475 bound_to 15466
  -12.6942   16.8449   22.4042 LP  0  0  0  0  0  0  0  0  0  0  0  0  # atno 16466 bound_to 11799
  -12.5881   15.2502   22.7397 LP  0  0  0  0  0  0  0  0  0  0  0  0  # atno 16467 bound_to 11799
  -22.3575    4.9866   18.2324 LP  0  0  0  0  0  0  0  0  0  0  0  0  # atno 16468 bound_to 10959
  -22.2402    4.3290   16.7422 LP  0  0  0  0  0  0  0  0  0  0  0  0  # atno 16469 bound_to 10959
  -18.1558    3.7185   14.2562 LP  0  0  0  0  0  0  0  0  0  0  0  0  # atno 16472 bound_to 10886
  -16.5496    3.2187   14.6690 LP  0  0  0  0  0  0  0  0  0  0  0  0  # atno 16473 bound_to 10886
  -17.5736    0.3531   16.3732 LP  0  0  0  0  0  0  0  0  0  0  0  0  # atno 16474 bound_to 10948
  -19.7963   -0.1732   21.0181 LP  0  0  0  0  0  0  0  0  0  0  0  0  # atno 16475 bound_to 11004
  -21.5001   -0.2539   21.3193 LP  0  0  0  0  0  0  0  0  0  0  0  0  # atno 16476 bound_to 11004
  -13.7944    0.7010   16.8983 LP  0  0  0  0  0  0  0  0  0  0  0  0  # atno 16477 bound_to 10914
  -14.7165    1.6143   18.0453 LP  0  0  0  0  0  0  0  0  0  0  0  0  # atno 16478 bound_to 10914
  -20.0955   -1.0449   17.9618 LP  0  0  0  0  0  0  0  0  0  0  0  0  # atno 16479 bound_to 10951
  -18.9879   -0.3601   16.8197 LP  0  0  0  0  0  0  0  0  0  0  0  0  # atno 16480 bound_to 10951
  -23.1394    1.7924   17.7484 LP  0  0  0  0  0  0  0  0  0  0  0  0  # atno 16482 bound_to 10719
  -23.9767    1.0339   18.9275 LP  0  0  0  0  0  0  0  0  0  0  0  0  # atno 16483 bound_to 10719
  -25.8318    1.8551   18.6866 LP  0  0  0  0  0  0  0  0  0  0  0  0  # atno 16484 bound_to 11987
  -26.1427    1.1494   17.1357 LP  0  0  0  0  0  0  0  0  0  0  0  0  # atno 16485 bound_to 11987
  -26.4236    6.1952   15.6080 LP  0  0  0  0  0  0  0  0  0  0  0  0  # atno 16486 bound_to 12059
  -27.8146    5.4158   14.9316 LP  0  0  0  0  0  0  0  0  0  0  0  0  # atno 16487 bound_to 12059
  -24.1593   -0.2758   23.0754 LP  0  0  0  0  0  0  0  0  0  0  0  0  # atno 16490 bound_to 11046
  -25.2258   -0.8401   21.8328 LP  0  0  0  0  0  0  0  0  0  0  0  0  # atno 16491 bound_to 11046
  -27.7600    2.4058   17.3121 LP  0  0  0  0  0  0  0  0  0  0  0  0  # atno 16492 bound_to 12056
  -17.4457   -0.0737   14.4106 LP  0  0  0  0  0  0  0  0  0  0  0  0  # atno 16493 bound_to 10911
  -13.5755    0.4463   13.2732 LP  0  0  0  0  0  0  0  0  0  0  0  0  # atno 16500 bound_to 6108
  -12.8024    1.3197   14.5536 LP  0  0  0  0  0  0  0  0  0  0  0  0  # atno 16501 bound_to 6108
  -13.2560    3.0305   12.0110 LP  0  0  0  0  0  0  0  0  0  0  0  0  # atno 16502 bound_to 6140
   -9.0060    2.0723   16.1560 LP  0  0  0  0  0  0  0  0  0  0  0  0  # atno 16503 bound_to 5921
   -8.1152    2.5485   14.7490 LP  0  0  0  0  0  0  0  0  0  0  0  0  # atno 16504 bound_to 5921
   -9.9512    1.4212   12.6838 LP  0  0  0  0  0  0  0  0  0  0  0  0  # atno 16505 bound_to 6105
   -9.2033    4.7441   10.9954 LP  0  0  0  0  0  0  0  0  0  0  0  0  # atno 16506 bound_to 6059
  -10.8722    4.2911   10.8976 LP  0  0  0  0  0  0  0  0  0  0  0  0  # atno 16507 bound_to 6059
   -9.6804    0.3940   12.7674 LP  0  0  0  0  0  0  0  0  0  0  0  0  # atno 16510 bound_to 5858
  -10.8353    0.3786   14.0581 LP  0  0  0  0  0  0  0  0  0  0  0  0  # atno 16511 bound_to 5858
   -9.2104   -1.2791   13.9928 LP  0  0  0  0  0  0  0  0  0  0  0  0  # atno 16516 bound_to 5918
   -7.9713    0.1533   14.1156 LP  0  0  0  0  0  0  0  0  0  0  0  0  # atno 16517 bound_to 5990
   -6.1592    3.6191   11.7167 LP  0  0  0  0  0  0  0  0  0  0  0  0  # atno 16518 bound_to 5993
   -7.2652    3.9571   13.0061 LP  0  0  0  0  0  0  0  0  0  0  0  0  # atno 16519 bound_to 5993
   -8.0837    0.4856   12.0197 LP  0  0  0  0  0  0  0  0  0  0  0  0  # atno 16520 bound_to 6056
  -21.6762    0.3390   26.8812 LP  0  0  0  0  0  0  0  0  0  0  0  0  # atno 16523 bound_to 11156
  -20.6097    1.3931   27.7480 LP  0  0  0  0  0  0  0  0  0  0  0  0  # atno 16524 bound_to 11156
  -19.9179   -1.1004   28.0977 LP  0  0  0  0  0  0  0  0  0  0  0  0  # atno 16525 bound_to 11201
  -15.8474   -0.5930   29.9968 LP  0  0  0  0  0  0  0  0  0  0  0  0  # atno 16528 bound_to 11204
  -17.0365   -1.3213   28.9694 LP  0  0  0  0  0  0  0  0  0  0  0  0  # atno 16529 bound_to 11204
  -18.1955    1.2961   31.6649 LP  0  0  0  0  0  0  0  0  0  0  0  0  # atno 16530 bound_to 11237
  -21.7725   -1.9385   25.8341 LP  0  0  0  0  0  0  0  0  0  0  0  0  # atno 16533 bound_to 11153
  -19.8066   -3.4583   25.0227 LP  0  0  0  0  0  0  0  0  0  0  0  0  # atno 16540 bound_to 11096
  -21.1204   -4.2709   24.2394 LP  0  0  0  0  0  0  0  0  0  0  0  0  # atno 16541 bound_to 11096
  -16.1502   -1.9551   15.1812 LP  0  0  0  0  0  0  0  0  0  0  0  0  # atno 16544 bound_to 10768
  -16.8527   -1.4157   13.6928 LP  0  0  0  0  0  0  0  0  0  0  0  0  # atno 16545 bound_to 10768
  -14.7506   -1.8885   31.7131 LP  0  0  0  0  0  0  0  0  0  0  0  0  # atno 16552 bound_to 11240
  -14.4977   -1.5779   33.3982 LP  0  0  0  0  0  0  0  0  0  0  0  0  # atno 16553 bound_to 11240
  -17.3292   -0.6354   33.6278 LP  0  0  0  0  0  0  0  0  0  0  0  0  # atno 16554 bound_to 11275
  -19.9486   -3.3087   33.0483 LP  0  0  0  0  0  0  0  0  0  0  0  0  # atno 16558 bound_to 11278
  -19.1872   -3.4167   31.4963 LP  0  0  0  0  0  0  0  0  0  0  0  0  # atno 16559 bound_to 11278
  -19.0810   -9.1894   25.9266 LP  0  0  0  0  0  0  0  0  0  0  0  0  # atno 16561 bound_to 9430
  -21.5484   -6.9214   32.1646 LP  0  0  0  0  0  0  0  0  0  0  0  0  # atno 16562 bound_to 11325
  -20.8503   -5.6264   31.2505 LP  0  0  0  0  0  0  0  0  0  0  0  0  # atno 16563 bound_to 11325
  -22.8687   -3.6483   31.6824 LP  0  0  0  0  0  0  0  0  0  0  0  0  # atno 16564 bound_to 11474
  -19.5847   -5.4068   34.8111 LP  0  0  0  0  0  0  0  0  0  0  0  0  # atno 16565 bound_to 11366
  -21.0772   -7.8975   26.6387 LP  0  0  0  0  0  0  0  0  0  0  0  0  # atno 16566 bound_to 9387
  -21.1982   -9.5950   26.9607 LP  0  0  0  0  0  0  0  0  0  0  0  0  # atno 16567 bound_to 9387
  -18.9622  -10.4751   30.8353 LP  0  0  0  0  0  0  0  0  0  0  0  0  # atno 16568 bound_to 11550
  -19.4640  -11.4794   32.0212 LP  0  0  0  0  0  0  0  0  0  0  0  0  # atno 16569 bound_to 11550
  -18.4148  -11.3637   24.3956 LP  0  0  0  0  0  0  0  0  0  0  0  0  # atno 16570 bound_to 9345
  -19.4541  -11.4554   25.7782 LP  0  0  0  0  0  0  0  0  0  0  0  0  # atno 16571 bound_to 9345
  -14.2088  -13.3548   25.4374 LP  0  0  0  0  0  0  0  0  0  0  0  0  # atno 16572 bound_to 9348
  -13.8761  -12.8169   23.9319 LP  0  0  0  0  0  0  0  0  0  0  0  0  # atno 16573 bound_to 9348
  -19.7107   -9.8577   24.5390 LP  0  0  0  0  0  0  0  0  0  0  0  0  # atno 16574 bound_to 9481
   -9.1323   -3.9939   16.3059 LP  0  0  0  0  0  0  0  0  0  0  0  0  # atno 16579 bound_to 5720
   -7.8072   -3.4380   15.3389 LP  0  0  0  0  0  0  0  0  0  0  0  0  # atno 16580 bound_to 5720
   -1.3104  -10.1419   20.6771 LP  0  0  0  0  0  0  0  0  0  0  0  0  # atno 16587 bound_to 15466
   -1.7841   -9.1750   21.9048 LP  0  0  0  0  0  0  0  0  0  0  0  0  # atno 16588 bound_to 15466
  -11.4341  -10.3267   18.2477 LP  0  0  0  0  0  0  0  0  0  0  0  0  # atno 16591 bound_to 7831
   -4.0688  -13.9431   26.4926 LP  0  0  0  0  0  0  0  0  0  0  0  0  # atno 16592 bound_to 1821
   -2.6077  -13.0133   26.5160 LP  0  0  0  0  0  0  0  0  0  0  0  0  # atno 16593 bound_to 1821
   -7.2884  -12.5706   17.3338 LP  0  0  0  0  0  0  0  0  0  0  0  0  # atno 16594 bound_to 7834
   -7.8506  -13.5363   18.6572 LP  0  0  0  0  0  0  0  0  0  0  0  0  # atno 16595 bound_to 7834
   -9.2619   -7.2716   13.9134 LP  0  0  0  0  0  0  0  0  0  0  0  0  # atno 16596 bound_to 5717
   -7.0673   -6.0309   14.6739 LP  0  0  0  0  0  0  0  0  0  0  0  0  # atno 16597 bound_to 5767
   -1.1360  -13.1798   19.9209 LP  0  0  0  0  0  0  0  0  0  0  0  0  # atno 16600 bound_to 1745
   -0.0597  -12.5741   18.7066 LP  0  0  0  0  0  0  0  0  0  0  0  0  # atno 16601 bound_to 1745
   -0.3321  -13.5018   24.4676 LP  0  0  0  0  0  0  0  0  0  0  0  0  # atno 16602 bound_to 1818
   -4.3723   -5.6794   13.3142 LP  0  0  0  0  0  0  0  0  0  0  0  0  # atno 16603 bound_to 5772
   -4.5025   -6.9215   14.3662 LP  0  0  0  0  0  0  0  0  0  0  0  0  # atno 16604 bound_to 5772
    0.4557   -8.1547   17.8571 LP  0  0  0  0  0  0  0  0  0  0  0  0  # atno 16605 bound_to 15403
    0.5876  -14.1537   20.3372 LP  0  0  0  0  0  0  0  0  0  0  0  0  # atno 16606 bound_to 1791
   -4.3309  -10.3151   12.5935 LP  0  0  0  0  0  0  0  0  0  0  0  0  # atno 16607 bound_to 5617
   -5.2571   -7.9234   13.4146 LP  0  0  0  0  0  0  0  0  0  0  0  0  # atno 16608 bound_to 5620
   -6.8145   -7.2426   13.0814 LP  0  0  0  0  0  0  0  0  0  0  0  0  # atno 16609 bound_to 5620
   -9.5236  -11.1482   15.5291 LP  0  0  0  0  0  0  0  0  0  0  0  0  # atno 16610 bound_to 7788
   -9.8092   -9.5570   14.9072 LP  0  0  0  0  0  0  0  0  0  0  0  0  # atno 16611 bound_to 7788
   -9.8413  -12.3312   16.8195 LP  0  0  0  0  0  0  0  0  0  0  0  0  # atno 16612 bound_to 7874
    0.4150  -16.3167   24.3322 LP  0  0  0  0  0  0  0  0  0  0  0  0  # atno 16613 bound_to 1794
    0.5427  -16.2471   22.6062 LP  0  0  0  0  0  0  0  0  0  0  0  0  # atno 16614 bound_to 1794
   -0.0103  -15.0400   28.8193 LP  0  0  0  0  0  0  0  0  0  0  0  0  # atno 16615 bound_to 1824
   -1.3885  -14.5092   28.1227 LP  0  0  0  0  0  0  0  0  0  0  0  0  # atno 16616 bound_to 1824
   -1.9210  -16.5017   27.3657 LP  0  0  0  0  0  0  0  0  0  0  0  0  # atno 16617 bound_to 1854
  -15.6862  -13.8416   27.7932 LP  0  0  0  0  0  0  0  0  0  0  0  0  # atno 16622 bound_to 9318
  -15.4438  -15.5285   27.4844 LP  0  0  0  0  0  0  0  0  0  0  0  0  # atno 16623 bound_to 9318
  -17.5813  -14.0058   26.3996 LP  0  0  0  0  0  0  0  0  0  0  0  0  # atno 16624 bound_to 9342
  -21.5103   -8.3056   22.3177 LP  0  0  0  0  0  0  0  0  0  0  0  0  # atno 16627 bound_to 9433
  -21.4377   -6.8947   23.3197 LP  0  0  0  0  0  0  0  0  0  0  0  0  # atno 16628 bound_to 9433
  -16.1350   -7.4613   18.4294 LP  0  0  0  0  0  0  0  0  0  0  0  0  # atno 16629 bound_to 9492
  -17.6226   -6.8930   18.0679 LP  0  0  0  0  0  0  0  0  0  0  0  0  # atno 16630 bound_to 9492
  -16.9478  -13.0482   20.3353 LP  0  0  0  0  0  0  0  0  0  0  0  0  # atno 16631 bound_to 7667
  -17.6813  -12.1481   19.0500 LP  0  0  0  0  0  0  0  0  0  0  0  0  # atno 16632 bound_to 7667
  -14.4361  -13.6144   18.1106 LP  0  0  0  0  0  0  0  0  0  0  0  0  # atno 16634 bound_to 7723
  -12.0427  -12.2065   16.6014 LP  0  0  0  0  0  0  0  0  0  0  0  0  # atno 16635 bound_to 7726
  -13.5909  -12.9101   16.2729 LP  0  0  0  0  0  0  0  0  0  0  0  0  # atno 16636 bound_to 7726
  -21.1428   -5.5637   16.7977 LP  0  0  0  0  0  0  0  0  0  0  0  0  # atno 16637 bound_to 10539
  -19.6556   -6.1673   16.1466 LP  0  0  0  0  0  0  0  0  0  0  0  0  # atno 16638 bound_to 10539
   -5.1924  -15.3211   32.8145 LP  0  0  0  0  0  0  0  0  0  0  0  0  # atno 16639 bound_to 1884
   -6.7170  -15.9044   32.8588 LP  0  0  0  0  0  0  0  0  0  0  0  0  # atno 16640 bound_to 1884
  -16.8807  -16.7879   27.8361 LP  0  0  0  0  0  0  0  0  0  0  0  0  # atno 16641 bound_to 9315
   -4.5779  -17.6741   29.4892 LP  0  0  0  0  0  0  0  0  0  0  0  0  # atno 16642 bound_to 1879
   -1.8891  -16.2071   30.3716 LP  0  0  0  0  0  0  0  0  0  0  0  0  # atno 16643 bound_to 1857
   -1.7373  -17.4974   29.2261 LP  0  0  0  0  0  0  0  0  0  0  0  0  # atno 16644 bound_to 1857
  -17.3031  -18.1658   23.4059 LP  0  0  0  0  0  0  0  0  0  0  0  0  # atno 16645 bound_to 7565
  -18.4414  -16.9072   23.0592 LP  0  0  0  0  0  0  0  0  0  0  0  0  # atno 16646 bound_to 7565
  -19.7622  -17.3524   25.9169 LP  0  0  0  0  0  0  0  0  0  0  0  0  # atno 16647 bound_to 9289
  -20.5808  -17.5783   27.4264 LP  0  0  0  0  0  0  0  0  0  0  0  0  # atno 16648 bound_to 9289
  -18.1190  -18.3266   31.2566 LP  0  0  0  0  0  0  0  0  0  0  0  0  # atno 16649 bound_to 9236
  -18.7269  -19.7887   31.9584 LP  0  0  0  0  0  0  0  0  0  0  0  0  # atno 16650 bound_to 9236
  -20.5492  -18.4564   28.8920 LP  0  0  0  0  0  0  0  0  0  0  0  0  # atno 16653 bound_to 9286
  -21.6803  -21.1535   30.4201 LP  0  0  0  0  0  0  0  0  0  0  0  0  # atno 16654 bound_to 9233
  -11.0635  -23.6954   33.2687 LP  0  0  0  0  0  0  0  0  0  0  0  0  # atno 16655 bound_to 3365
  -11.8109  -22.8674   34.5938 LP  0  0  0  0  0  0  0  0  0  0  0  0  # atno 16656 bound_to 3365
   -7.4737  -23.8250   36.8784 LP  0  0  0  0  0  0  0  0  0  0  0  0  # atno 16657 bound_to 3362
   -4.0871  -19.3506   31.4056 LP  0  0  0  0  0  0  0  0  0  0  0  0  # atno 16658 bound_to 1922

> <Gold.Score>
     Fitness  S(hb_ext) S(vdw_ext)  S(hb_int)    S(int)      intcor
     30.32       0.00      22.66       0.00      -0.83      -0.76

> <Gold.Goldscore.Fitness>
30.3213

> <Gold.Goldscore.Internal.Vdw>
-1.1193

> <Gold.Goldscore.Internal.Torsion>
-0.4707

> <Gold.Goldscore.External.Vdw>
22.6558

> <Gold.Goldscore.Internal.HBond>
0.0000

> <Gold.Goldscore.External.HBond>
0.0000

> <Gold.Goldscore.Internal.Correction>
-0.7595

> <Gold.Goldscore.Internal.Vdw.Weighted>
-1.1193

> <Gold.Goldscore.Internal.Torsion.Weighted>
-0.4707

> <Gold.Goldscore.External.Vdw.Weighted>
31.1517

> <Gold.Goldscore.Internal.HBond.Weighted>
0.0000

> <Gold.Goldscore.External.HBond.Weighted>
0.0000

> <Gold.Goldscore.Internal.Correction.Weighted>
-0.7595

> <Gold.Rescore>
     Score     S(PLP)   S(hbond)     S(cho)   S(metal)  DE(clash)   DE(tors)     intcor
     25.63     -25.61       0.52       0.00       0.00       0.00       0.78       ----

> <Gold.PLP.Fitness>
25.6271

> <Gold.PLP.PLP>
-25.6142

> <Gold.PLP.part.hbond>
-1.8295

> <Gold.PLP.part.metal>
0.0000

> <Gold.PLP.part.buried>
-1.9660

> <Gold.PLP.part.nonpolar>
-26.1972

> <Gold.PLP.part.repulsive>
2.9638

> <Gold.PLP.ligand.clash>
0.0000

> <Gold.PLP.ligand.torsion>
0.7771

> <Gold.PLP.Chemscore.Hbond>
0.5223

> <Gold.PLP.Chemscore.CHOScore>
0.0000

> <Gold.PLP.Chemscore.Metal>
0.0000

> <Gold.PLP.Chemscore.Internal.Correction>
   9.000000E+99

