#       Name:                CT1002167954
#       Creating user name   hitesit
#       Creation time:       Sun Apr 16 22:52:08 2023


#       File generated by GOLD software.
#

@<TRIPOS>MOLECULE
CT1002167954|ligand_prepared|mol2|1|dock9
    29    30     1
SMALL
NO_CHARGES


@<TRIPOS>ATOM
      1 C1         -11.6601  -6.6728  24.9167 C.3            1 RES1               0.0000
      2 C2         -12.7387  -6.3348  23.8673 C.ar           1 RES1               0.0000
      3 C3         -12.1128  -7.9616  25.5966 C.2            1 RES1               0.0000
      4 C4         -10.3468  -6.8006  24.1526 C.2            1 RES1               0.0000
      5 C5         -11.4788  -5.5837  25.9995 C.3            1 RES1               0.0000
      6 C6         -13.0665  -5.0112  23.5891 C.ar           1 RES1               0.0000
      7 C7         -13.4114  -7.3339  23.1688 C.ar           1 RES1               0.0000
      8 N8         -11.4480  -9.1098  25.2808 N.am           1 RES1               0.0000
      9 O9         -13.0640  -7.9770  26.3680 O.2            1 RES1               0.0000
     10 N10         -9.7477  -8.0321  24.1072 N.am           1 RES1               0.0000
     11 O11         -9.8341  -5.8496  23.5756 O.2            1 RES1               0.0000
     12 C12        -10.6501  -6.0361  27.1914 C.3            1 RES1               0.0000
     13 C13        -14.0298  -4.6976  22.6447 C.ar           1 RES1               0.0000
     14 C14        -14.3746  -7.0180  22.2249 C.ar           1 RES1               0.0000
     15 C15        -10.2544  -9.1991  24.6107 C.2            1 RES1               0.0000
     16 C16        -14.6841  -5.7006  21.9617 C.ar           1 RES1               0.0000
     17 O17         -9.6823 -10.2778  24.4826 O.2            1 RES1               0.0000
     18 H18        -10.9954  -4.7104  25.5445 H              1 RES1               0.0000
     19 H19        -12.4684  -5.2716  26.3556 H              1 RES1               0.0000
     20 H20        -12.5639  -4.2085  24.1184 H              1 RES1               0.0000
     21 H21        -13.1851  -8.3773  23.3602 H              1 RES1               0.0000
     22 H22        -11.8781  -9.9826  25.5695 H              1 RES1               0.0000
     23 H23         -8.8397  -8.0837  23.6563 H              1 RES1               0.0000
     24 H24        -10.5539  -5.2346  27.9208 H              1 RES1               0.0000
     25 H25        -11.1150  -6.8879  27.6834 H              1 RES1               0.0000
     26 H26         -9.6508  -6.3300  26.8771 H              1 RES1               0.0000
     27 H27        -14.2707  -3.6592  22.4422 H              1 RES1               0.0000
     28 H28        -14.8875  -7.8106  21.6902 H              1 RES1               0.0000
     29 H29        -15.4384  -5.4546  21.2216 H              1 RES1               0.0000
@<TRIPOS>BOND
    1    1    2 1     
    2    1    3 1     
    3    1    4 1     
    4    1    5 1     
    5    2    6 ar    
    6    2    7 ar    
    7    3    8 1     
    8    3    9 2     
    9    4   10 1     
   10    4   11 2     
   11    5   12 1     
   12    5   18 1     
   13    5   19 1     
   14    6   13 ar    
   15    6   20 1     
   16    7   14 ar    
   17    7   21 1     
   18    8   15 1     
   19    8   22 1     
   20   10   15 1     
   21   10   23 1     
   22   12   24 1     
   23   12   25 1     
   24   12   26 1     
   25   13   16 ar    
   26   13   27 1     
   27   14   16 ar    
   28   14   28 1     
   29   15   17 2     
   30   16   29 1     
@<TRIPOS>SUBSTRUCTURE
      1 RES1           1
@<TRIPOS>SET
DONOR_HYDROGENS      STATIC     ATOMS    <user>   **** ""
2 22 23
ATOM$RED        STATIC     ATOMS    COLORGROUP SYSTEM
2 22 23
@<TRIPOS>COMMENT
> <Gold.Version>
2022.3.0

> <Gold.Id.Protein>
unknown|3mvj_clean|pdb

> <Gold.Protein.RotatedTorsions>
[ 11826 11799 11798 11795 ] final   79.69 input   60.01 | X-H torsion
[ 11911 11856 11855 11854 ] final  164.08 input   60.02 | X-H torsion
[ 10977 10959 10958 10956 ] final   -6.10 input   60.00 | X-H torsion
[ 10969 10948 10949 10950 ] final  113.58 input   32.02 | X-H torsion
[ 10737 10719 10718 10716 ] final   90.95 input   60.01 | X-H torsion
[ 12076 12056 12057 12058 ] final -169.01 input   63.02 | X-H torsion
[ 10918 10911 10912 10913 ] final  -15.56 input  -92.90 | X-H torsion
[ 6164 6140 6141 6142 ] final -112.30 input   39.58 | X-H torsion
[ 6112 6105 6106 6107 ] final   15.04 input  -69.34 | X-H torsion
[ 5955 5918 5919 5920 ] final  151.98 input  125.26 | X-H torsion
[ 6027 5990 5991 5992 ] final -155.39 input  110.40 | X-H torsion
[ 6075 6056 6057 6058 ] final  -68.74 input  107.04 | X-H torsion
[ 11686 11631 11630 11629 ] final   24.87 input   60.02 | X-H torsion
[ 11211 11201 11202 11203 ] final  -96.47 input   18.84 | X-H torsion
[ 11249 11237 11238 11239 ] final  139.41 input  111.29 | X-H torsion
[ 11173 11153 11154 11155 ] final   75.50 input   30.50 | X-H torsion
[ 11292 11275 11276 11277 ] final   79.63 input   58.53 | X-H torsion
[ 9451 9430 9431 9432 ] final -136.04 input  110.06 | X-H torsion
[ 11493 11474 11475 11476 ] final  153.91 input  115.95 | X-H torsion
[ 11385 11366 11367 11368 ] final   69.98 input  117.79 | X-H torsion
[ 11568 11550 11549 11547 ] final   41.69 input   59.97 | X-H torsion
[ 9369 9348 9346 9343 ] final  159.86 input   60.02 | X-H torsion
[ 9511 9481 9482 9483 ] final -147.81 input   75.78 | X-H torsion
[ 15475 15466 15465 15463 ] final  161.25 input   60.00 | X-H torsion
[ 7755 7731 7730 7729 ] final   47.37 input   60.02 | X-H torsion
[ 7846 7831 7832 7833 ] final -144.78 input  113.97 | X-H torsion
[ 5737 5717 5718 5719 ] final  -29.41 input  137.93 | X-H torsion
[ 5778 5767 5768 5769 ] final  -19.95 input  116.46 | X-H torsion
[ 1839 1818 1819 1820 ] final -168.64 input   43.70 | X-H torsion
[ 5782 5772 5771 5768 ] final   19.19 input   59.97 | X-H torsion
[ 15411 15403 15404 15405 ] final  114.90 input  102.24 | X-H torsion
[ 1801 1791 1792 1793 ] final -108.98 input  -10.55 | X-H torsion
[ 5632 5617 5618 5619 ] final   10.37 input   93.34 | X-H torsion
[ 7884 7874 7875 7876 ] final  -83.84 input   68.03 | X-H torsion
[ 1845 1824 1822 1819 ] final  -39.83 input   60.02 | X-H torsion
[ 1864 1854 1855 1856 ] final   44.84 input   57.50 | X-H torsion
[ 9363 9342 9343 9344 ] final  168.08 input   55.58 | X-H torsion
[ 9519 9492 9491 9489 ] final  -49.66 input   60.02 | X-H torsion
[ 7745 7723 7724 7725 ] final -108.75 input   17.81 | X-H torsion
[ 1896 1884 1883 1880 ] final -159.36 input   60.01 | X-H torsion
[ 9325 9315 9316 9317 ] final   28.48 input  -36.21 | X-H torsion
[ 1892 1879 1880 1881 ] final -168.97 input   98.21 | X-H torsion
[ 9302 9286 9287 9288 ] final   73.57 input   37.00 | X-H torsion
[ 9263 9233 9234 9235 ] final -162.02 input   95.32 | X-H torsion
[ 3370 3362 3363 3364 ] final -148.17 input   97.92 | X-H torsion
[ 1947 1922 1923 1924 ] final  -53.07 input  104.43 | X-H torsion
[ 12159 12148 12149 12150 ] final -115.99 input  116.04 | X-H torsion
[ 11673 11649 11648 11647 ] final  110.62 input   59.99 | X-H torsion
[ 12008 11984 11985 11986 ] final   87.76 input   61.04 | X-H torsion
[ 11113 11093 11094 11095 ] final   49.34 input   39.50 | X-H torsion
[ 7924 7916 7917 7918 ] final    6.19 input   66.66 | X-H torsion
[ 8650 8630 8631 8632 ] final -114.54 input   75.31 | X-H torsion
[ 9566 9536 9537 9538 ] final   88.03 input  103.50 | X-H torsion
[ 16472 10886 10885 10884 ] final  109.69 input    0.00 | X-H torsion
[ 16475 11004 11003 11002 ] final -101.25 input    0.00 | X-H torsion
[ 16477 10914 10913 10912 ] final -115.31 input    0.00 | X-H torsion
[ 16479 10951 10950 10949 ] final    7.03 input   -0.00 | X-H torsion
[ 16484 11987 11986 11985 ] final -123.75 input    0.00 | X-H torsion
[ 16486 12059 12058 12057 ] final   30.94 input   -0.00 | X-H torsion
[ 16490 11046 11045 11044 ] final  104.06 input    0.00 | X-H torsion
[ 16500 6108 6107 6106 ] final -111.09 input    0.00 | X-H torsion
[ 16503 5921 5920 5919 ] final   92.81 input   -0.00 | X-H torsion
[ 16506 6059 6058 6057 ] final  167.34 input    0.00 | X-H torsion
[ 16510 5858 5857 5856 ] final  -77.34 input    0.00 | X-H torsion
[ 16518 5993 5992 5991 ] final  -90.00 input   -0.00 | X-H torsion
[ 16523 11156 11155 11154 ] final  -14.06 input    0.00 | X-H torsion
[ 16528 11204 11203 11202 ] final -175.78 input    0.00 | X-H torsion
[ 16540 11096 11095 11094 ] final -137.81 input   -0.00 | X-H torsion
[ 16544 10768 10767 10766 ] final -129.38 input   -0.00 | X-H torsion
[ 16552 11240 11239 11238 ] final -154.69 input    0.00 | X-H torsion
[ 16558 11278 11277 11276 ] final -170.16 input   -0.00 | X-H torsion
[ 16562 11325 11324 11323 ] final -174.38 input   -0.00 | X-H torsion
[ 16566 9387 9386 9385 ] final -139.22 input   -0.00 | X-H torsion
[ 16570 9345 9344 9343 ] final   -2.81 input    0.00 | X-H torsion
[ 16579 5720 5719 5718 ] final  139.22 input    0.00 | X-H torsion
[ 16592 1821 1820 1819 ] final  -77.34 input    0.00 | X-H torsion
[ 16594 7834 7833 7832 ] final  127.97 input    0.00 | X-H torsion
[ 16600 1745 1744 1743 ] final    5.62 input    0.00 | X-H torsion
[ 16608 5620 5619 5618 ] final   19.69 input   -0.00 | X-H torsion
[ 16610 7788 7787 7786 ] final   -5.63 input   -0.00 | X-H torsion
[ 16613 1794 1793 1792 ] final  -50.63 input   -0.00 | X-H torsion
[ 16622 9318 9317 9316 ] final  165.94 input   -0.00 | X-H torsion
[ 16627 9433 9432 9431 ] final  143.44 input    0.00 | X-H torsion
[ 16631 7667 7666 7665 ] final  -94.22 input   -0.00 | X-H torsion
[ 16635 7726 7725 7724 ] final  122.34 input    0.00 | X-H torsion
[ 16637 10539 10538 10537 ] final   68.91 input   -0.00 | X-H torsion
[ 16643 1857 1856 1855 ] final  -11.25 input    0.00 | X-H torsion
[ 16645 7565 7564 7563 ] final    8.44 input    0.00 | X-H torsion
[ 16647 9289 9288 9287 ] final -140.62 input    0.00 | X-H torsion
[ 16649 9236 9235 9234 ] final  137.81 input    0.00 | X-H torsion
[ 16655 3365 3364 3363 ] final   43.59 input    0.00 | X-H torsion

> <Gold.Protein.ActiveResidues>
 LEU49   GLY50   THR51   GLY52   SER53   PHE54   VAL57   LEU82   LYS83   GLN84  
 HIS87   GLU127  PHE129  SER130  LEU132  ARG133  ARG134  ILE135  GLY136  ARG137 
 ARG165  ASP166  LEU167  LYS168  PRO169  GLU170  ASN171  LEU172  LEU173  ASP184 
 GLY186  PHE187  TPO197  LEU198  CYS199  GLY200  THR201  PRO202  GLU203  TYR204 
 LEU205  ILE209  ILE210  VAL226  LEU227  TYR229  GLU230  ALA233  GLY234  TYR235 
 PRO236  PRO237  PHE238  PHE239  ALA240  ASP241  GLN242  PRO243  ILE244  GLN245 
 ILE246  TYR247  GLU248  LYS249  ILE250  VAL251  SER252  LYS254  ARG256  PHE257 
 PRO258  SER259  PHE327  ASP328  TYR330 

> <Gold.Protein.RotatedAtoms>
    1.3188  -13.3545   21.2373 H   0  0  0  0  0  0  0  0  0  0  0  0  # atno 1801 bound_to 1791
   -0.1694  -14.4143   23.9477 H   0  0  0  0  0  0  0  0  0  0  0  0  # atno 1839 bound_to 1818
   -1.1958  -13.8410   28.0334 H   0  0  0  0  0  0  0  0  0  0  0  0  # atno 1845 bound_to 1824
   -2.1527  -16.8581   27.1074 H   0  0  0  0  0  0  0  0  0  0  0  0  # atno 1864 bound_to 1854
   -4.5274  -16.0513   30.1393 H   0  0  0  0  0  0  0  0  0  0  0  0  # atno 1892 bound_to 1879
   -6.3115  -15.7015   33.2298 H   0  0  0  0  0  0  0  0  0  0  0  0  # atno 1896 bound_to 1884
   -3.7030  -19.2362   31.0837 H   0  0  0  0  0  0  0  0  0  0  0  0  # atno 1947 bound_to 1922
   -7.5468  -23.8414   36.9625 H   0  0  0  0  0  0  0  0  0  0  0  0  # atno 3370 bound_to 3362
   -4.3047   -9.2961   13.1217 H   0  0  0  0  0  0  0  0  0  0  0  0  # atno 5632 bound_to 5617
   -8.6776   -7.1665   13.8653 H   0  0  0  0  0  0  0  0  0  0  0  0  # atno 5737 bound_to 5717
   -7.4987   -5.5224   15.0114 H   0  0  0  0  0  0  0  0  0  0  0  0  # atno 5778 bound_to 5767
   -4.7256   -5.9341   13.4851 H   0  0  0  0  0  0  0  0  0  0  0  0  # atno 5782 bound_to 5772
   -9.1758   -2.4778   15.2622 H   0  0  0  0  0  0  0  0  0  0  0  0  # atno 5955 bound_to 5918
   -6.7781    0.1345   15.3702 H   0  0  0  0  0  0  0  0  0  0  0  0  # atno 6027 bound_to 5990
   -7.2104    1.8938   12.4489 H   0  0  0  0  0  0  0  0  0  0  0  0  # atno 6075 bound_to 6056
  -10.3682    1.6510   11.7565 H   0  0  0  0  0  0  0  0  0  0  0  0  # atno 6112 bound_to 6105
  -12.4635    1.7853   12.2608 H   0  0  0  0  0  0  0  0  0  0  0  0  # atno 6164 bound_to 6140
  -16.0170  -13.0828   17.6737 H   0  0  0  0  0  0  0  0  0  0  0  0  # atno 7745 bound_to 7723
  -12.8871  -12.2249   24.4094 H   0  0  0  0  0  0  0  0  0  0  0  0  # atno 7755 bound_to 7731
  -11.6494  -13.3262   24.4623 H   0  0  0  0  0  0  0  0  0  0  0  0  # atno 7756 bound_to 7731
  -11.3535  -11.7690   23.9753 H   0  0  0  0  0  0  0  0  0  0  0  0  # atno 7757 bound_to 7731
  -10.5643   -9.3095   17.4669 H   0  0  0  0  0  0  0  0  0  0  0  0  # atno 7846 bound_to 7831
   -9.3917  -12.3854   17.3561 H   0  0  0  0  0  0  0  0  0  0  0  0  # atno 7884 bound_to 7874
   -9.4110  -13.1682   15.3151 H   0  0  0  0  0  0  0  0  0  0  0  0  # atno 7924 bound_to 7916
  -13.0312  -23.1318   23.8519 H   0  0  0  0  0  0  0  0  0  0  0  0  # atno 8650 bound_to 8630
  -22.3432  -20.9884   31.3013 H   0  0  0  0  0  0  0  0  0  0  0  0  # atno 9263 bound_to 9233
  -20.3365  -19.4540   28.7817 H   0  0  0  0  0  0  0  0  0  0  0  0  # atno 9302 bound_to 9286
  -17.4681  -16.4725   28.0941 H   0  0  0  0  0  0  0  0  0  0  0  0  # atno 9325 bound_to 9315
  -16.5071  -14.3233   25.3257 H   0  0  0  0  0  0  0  0  0  0  0  0  # atno 9363 bound_to 9342
  -14.2416  -13.0589   23.6361 H   0  0  0  0  0  0  0  0  0  0  0  0  # atno 9369 bound_to 9348
  -18.7461   -7.9764   26.6802 H   0  0  0  0  0  0  0  0  0  0  0  0  # atno 9451 bound_to 9430
  -19.5449   -8.6322   23.3063 H   0  0  0  0  0  0  0  0  0  0  0  0  # atno 9511 bound_to 9481
  -17.1492   -6.7839   18.4651 H   0  0  0  0  0  0  0  0  0  0  0  0  # atno 9519 bound_to 9492
  -21.4396  -10.5098   24.9999 H   0  0  0  0  0  0  0  0  0  0  0  0  # atno 9566 bound_to 9536
  -23.8494    1.8706   17.2519 H   0  0  0  0  0  0  0  0  0  0  0  0  # atno 10737 bound_to 10719
  -17.7300    0.4307   14.9419 H   0  0  0  0  0  0  0  0  0  0  0  0  # atno 10918 bound_to 10911
  -17.0690    1.5799   16.7569 H   0  0  0  0  0  0  0  0  0  0  0  0  # atno 10969 bound_to 10948
  -22.5959    4.3930   17.7520 H   0  0  0  0  0  0  0  0  0  0  0  0  # atno 10977 bound_to 10959
  -22.1421   -3.1239   22.3160 H   0  0  0  0  0  0  0  0  0  0  0  0  # atno 11113 bound_to 11093
  -21.3795   -0.5765   24.8902 H   0  0  0  0  0  0  0  0  0  0  0  0  # atno 11173 bound_to 11153
  -18.8285   -0.1754   27.3928 H   0  0  0  0  0  0  0  0  0  0  0  0  # atno 11211 bound_to 11201
  -18.0403    1.5094   31.4501 H   0  0  0  0  0  0  0  0  0  0  0  0  # atno 11249 bound_to 11237
  -18.0279   -0.8503   33.2497 H   0  0  0  0  0  0  0  0  0  0  0  0  # atno 11292 bound_to 11275
  -19.6439   -5.1243   34.5286 H   0  0  0  0  0  0  0  0  0  0  0  0  # atno 11385 bound_to 11366
  -21.1817   -3.3135   31.3590 H   0  0  0  0  0  0  0  0  0  0  0  0  # atno 11493 bound_to 11474
  -18.7401  -10.0409   31.1384 H   0  0  0  0  0  0  0  0  0  0  0  0  # atno 11568 bound_to 11550
  -23.8257    2.8617   28.5692 H   0  0  0  0  0  0  0  0  0  0  0  0  # atno 11673 bound_to 11649
  -25.1038    2.7606   27.5179 H   0  0  0  0  0  0  0  0  0  0  0  0  # atno 11674 bound_to 11649
  -25.1932    2.0306   29.0034 H   0  0  0  0  0  0  0  0  0  0  0  0  # atno 11675 bound_to 11649
   -7.8693    9.2430   26.2246 H   0  0  0  0  0  0  0  0  0  0  0  0  # atno 11686 bound_to 11631
   -9.2526    8.6545   26.9216 H   0  0  0  0  0  0  0  0  0  0  0  0  # atno 11687 bound_to 11631
   -8.7181    8.0263   25.4846 H   0  0  0  0  0  0  0  0  0  0  0  0  # atno 11688 bound_to 11631
  -13.5233   16.7083   23.3482 H   0  0  0  0  0  0  0  0  0  0  0  0  # atno 11826 bound_to 11799
  -18.2545   16.3018   24.5907 H   0  0  0  0  0  0  0  0  0  0  0  0  # atno 11911 bound_to 11856
  -16.8650   15.6573   23.9567 H   0  0  0  0  0  0  0  0  0  0  0  0  # atno 11912 bound_to 11856
  -17.6205   14.9090   25.2285 H   0  0  0  0  0  0  0  0  0  0  0  0  # atno 11913 bound_to 11856
  -27.8893    1.1429   20.3718 H   0  0  0  0  0  0  0  0  0  0  0  0  # atno 12008 bound_to 11984
  -28.0704    2.3166   17.0978 H   0  0  0  0  0  0  0  0  0  0  0  0  # atno 12076 bound_to 12056
  -25.5954    6.7432   13.3872 H   0  0  0  0  0  0  0  0  0  0  0  0  # atno 12159 bound_to 12148
    0.5350   -8.4013   17.9979 H   0  0  0  0  0  0  0  0  0  0  0  0  # atno 15411 bound_to 15403
   -2.1940  -10.1602   22.3168 H   0  0  0  0  0  0  0  0  0  0  0  0  # atno 15475 bound_to 15466
  -12.4019   16.3888   22.2133 LP  0  0  0  0  0  0  0  0  0  0  0  0  # atno 16466 bound_to 11799
  -12.9648   15.1905   23.1692 LP  0  0  0  0  0  0  0  0  0  0  0  0  # atno 16467 bound_to 11799
  -21.7267    4.8807   16.4655 LP  0  0  0  0  0  0  0  0  0  0  0  0  # atno 16468 bound_to 10959
  -21.6691    5.7263   17.8613 LP  0  0  0  0  0  0  0  0  0  0  0  0  # atno 16469 bound_to 10959
  -17.3522    3.3223   15.3162 LP  0  0  0  0  0  0  0  0  0  0  0  0  # atno 16472 bound_to 10886
  -17.3532    3.6149   13.6090 LP  0  0  0  0  0  0  0  0  0  0  0  0  # atno 16473 bound_to 10886
  -16.6076   -0.0764   16.4154 LP  0  0  0  0  0  0  0  0  0  0  0  0  # atno 16474 bound_to 10948
  -20.7672   -0.6139   21.9274 LP  0  0  0  0  0  0  0  0  0  0  0  0  # atno 16475 bound_to 11004
  -20.5292    0.1868   20.4101 LP  0  0  0  0  0  0  0  0  0  0  0  0  # atno 16476 bound_to 11004
  -14.2803    0.3376   17.7491 LP  0  0  0  0  0  0  0  0  0  0  0  0  # atno 16477 bound_to 10914
  -14.2306    1.9777   17.1945 LP  0  0  0  0  0  0  0  0  0  0  0  0  # atno 16478 bound_to 10914
  -19.0733   -0.1639   16.9003 LP  0  0  0  0  0  0  0  0  0  0  0  0  # atno 16479 bound_to 10951
  -20.0100   -1.2412   17.8812 LP  0  0  0  0  0  0  0  0  0  0  0  0  # atno 16480 bound_to 10951
  -23.2077    1.3405   18.6500 LP  0  0  0  0  0  0  0  0  0  0  0  0  # atno 16482 bound_to 10719
  -24.7986    1.1310   18.3471 LP  0  0  0  0  0  0  0  0  0  0  0  0  # atno 16483 bound_to 10719
  -25.5029    2.1836   17.6849 LP  0  0  0  0  0  0  0  0  0  0  0  0  # atno 16484 bound_to 11987
  -26.4716    0.8209   18.1373 LP  0  0  0  0  0  0  0  0  0  0  0  0  # atno 16485 bound_to 11987
  -27.5591    5.4644   15.9332 LP  0  0  0  0  0  0  0  0  0  0  0  0  # atno 16486 bound_to 12059
  -26.6792    6.1467   14.6064 LP  0  0  0  0  0  0  0  0  0  0  0  0  # atno 16487 bound_to 12059
  -25.2175   -1.2211   22.6403 LP  0  0  0  0  0  0  0  0  0  0  0  0  # atno 16490 bound_to 11046
  -24.1676    0.1052   22.2678 LP  0  0  0  0  0  0  0  0  0  0  0  0  # atno 16491 bound_to 11046
  -27.9490    4.0580   17.0348 LP  0  0  0  0  0  0  0  0  0  0  0  0  # atno 16492 bound_to 12056
  -17.1141    1.0624   13.4297 LP  0  0  0  0  0  0  0  0  0  0  0  0  # atno 16493 bound_to 10911
  -12.8960    0.2343   13.4201 LP  0  0  0  0  0  0  0  0  0  0  0  0  # atno 16500 bound_to 6108
  -13.4819    1.5317   14.4067 LP  0  0  0  0  0  0  0  0  0  0  0  0  # atno 16501 bound_to 6108
  -12.9461    3.0684   11.1763 LP  0  0  0  0  0  0  0  0  0  0  0  0  # atno 16502 bound_to 6140
   -8.0033    2.3983   16.1096 LP  0  0  0  0  0  0  0  0  0  0  0  0  # atno 16503 bound_to 5921
   -9.1178    2.2225   14.7954 LP  0  0  0  0  0  0  0  0  0  0  0  0  # atno 16504 bound_to 5921
   -9.3267    2.6535   12.7440 LP  0  0  0  0  0  0  0  0  0  0  0  0  # atno 16505 bound_to 6105
  -10.7619    4.4880   11.4206 LP  0  0  0  0  0  0  0  0  0  0  0  0  # atno 16506 bound_to 6059
   -9.3137    4.5472   10.4723 LP  0  0  0  0  0  0  0  0  0  0  0  0  # atno 16507 bound_to 6059
   -9.6028    0.4395   12.8488 LP  0  0  0  0  0  0  0  0  0  0  0  0  # atno 16510 bound_to 5858
  -10.9130    0.3331   13.9766 LP  0  0  0  0  0  0  0  0  0  0  0  0  # atno 16511 bound_to 5858
   -9.2147   -1.2785   13.9935 LP  0  0  0  0  0  0  0  0  0  0  0  0  # atno 16516 bound_to 5918
   -7.8426   -0.0469   13.9889 LP  0  0  0  0  0  0  0  0  0  0  0  0  # atno 16517 bound_to 5990
   -7.3643    3.9597   12.9048 LP  0  0  0  0  0  0  0  0  0  0  0  0  # atno 16518 bound_to 5993
   -6.0601    3.6165   11.8180 LP  0  0  0  0  0  0  0  0  0  0  0  0  # atno 16519 bound_to 5993
   -7.8614    0.4136   11.8036 LP  0  0  0  0  0  0  0  0  0  0  0  0  # atno 16520 bound_to 6056
  -21.2645    0.7643   26.4632 LP  0  0  0  0  0  0  0  0  0  0  0  0  # atno 16523 bound_to 11156
  -21.0213    0.9678   28.1660 LP  0  0  0  0  0  0  0  0  0  0  0  0  # atno 16524 bound_to 11156
  -19.4011   -1.5200   28.3613 LP  0  0  0  0  0  0  0  0  0  0  0  0  # atno 16525 bound_to 11201
  -15.9590   -0.8759   30.1973 LP  0  0  0  0  0  0  0  0  0  0  0  0  # atno 16528 bound_to 11204
  -16.9250   -1.0384   28.7689 LP  0  0  0  0  0  0  0  0  0  0  0  0  # atno 16529 bound_to 11204
  -17.7915   -0.0765   30.7589 LP  0  0  0  0  0  0  0  0  0  0  0  0  # atno 16530 bound_to 11237
  -21.6167   -2.1780   25.5563 LP  0  0  0  0  0  0  0  0  0  0  0  0  # atno 16533 bound_to 11153
  -20.2191   -3.7951   25.4589 LP  0  0  0  0  0  0  0  0  0  0  0  0  # atno 16540 bound_to 11096
  -20.7078   -3.9342   23.8031 LP  0  0  0  0  0  0  0  0  0  0  0  0  # atno 16541 bound_to 11096
  -16.8195   -1.4412   13.6694 LP  0  0  0  0  0  0  0  0  0  0  0  0  # atno 16544 bound_to 10768
  -16.1835   -1.9296   15.2046 LP  0  0  0  0  0  0  0  0  0  0  0  0  # atno 16545 bound_to 10768
  -15.0475   -2.4887   32.5569 LP  0  0  0  0  0  0  0  0  0  0  0  0  # atno 16552 bound_to 11240
  -14.2009   -0.9777   32.5543 LP  0  0  0  0  0  0  0  0  0  0  0  0  # atno 16553 bound_to 11240
  -16.4961   -1.1840   32.4772 LP  0  0  0  0  0  0  0  0  0  0  0  0  # atno 16554 bound_to 11275
  -19.7723   -4.1974   32.1649 LP  0  0  0  0  0  0  0  0  0  0  0  0  # atno 16558 bound_to 11278
  -19.3636   -2.5280   32.3797 LP  0  0  0  0  0  0  0  0  0  0  0  0  # atno 16559 bound_to 11278
  -18.2660   -9.1377   25.4630 LP  0  0  0  0  0  0  0  0  0  0  0  0  # atno 16561 bound_to 9430
  -21.8086   -6.1152   32.3022 LP  0  0  0  0  0  0  0  0  0  0  0  0  # atno 16562 bound_to 11325
  -20.5901   -6.4326   31.1129 LP  0  0  0  0  0  0  0  0  0  0  0  0  # atno 16563 bound_to 11325
  -22.8894   -3.5694   31.6566 LP  0  0  0  0  0  0  0  0  0  0  0  0  # atno 16564 bound_to 11474
  -19.8543   -6.6083   33.6457 LP  0  0  0  0  0  0  0  0  0  0  0  0  # atno 16565 bound_to 11366
  -21.2096   -8.8026   25.9385 LP  0  0  0  0  0  0  0  0  0  0  0  0  # atno 16566 bound_to 9387
  -21.0658   -8.6899   27.6609 LP  0  0  0  0  0  0  0  0  0  0  0  0  # atno 16567 bound_to 9387
  -19.4625  -11.4664   31.4452 LP  0  0  0  0  0  0  0  0  0  0  0  0  # atno 16568 bound_to 11550
  -18.9669  -10.5168   32.6779 LP  0  0  0  0  0  0  0  0  0  0  0  0  # atno 16569 bound_to 11550
  -18.5522  -12.0382   24.6301 LP  0  0  0  0  0  0  0  0  0  0  0  0  # atno 16570 bound_to 9345
  -19.3168  -10.7809   25.5437 LP  0  0  0  0  0  0  0  0  0  0  0  0  # atno 16571 bound_to 9345
  -15.0979  -13.9489   24.6954 LP  0  0  0  0  0  0  0  0  0  0  0  0  # atno 16572 bound_to 9348
  -13.8549  -13.0269   25.2163 LP  0  0  0  0  0  0  0  0  0  0  0  0  # atno 16573 bound_to 9348
  -19.6150   -9.8956   24.5143 LP  0  0  0  0  0  0  0  0  0  0  0  0  # atno 16574 bound_to 9481
   -7.7585   -3.4836   16.2585 LP  0  0  0  0  0  0  0  0  0  0  0  0  # atno 16579 bound_to 5720
   -9.1810   -3.9482   15.3863 LP  0  0  0  0  0  0  0  0  0  0  0  0  # atno 16580 bound_to 5720
   -1.5715  -10.7614   20.9389 LP  0  0  0  0  0  0  0  0  0  0  0  0  # atno 16587 bound_to 15466
   -1.4409   -9.1677   21.2702 LP  0  0  0  0  0  0  0  0  0  0  0  0  # atno 16588 bound_to 15466
  -11.4033  -10.8428   17.6309 LP  0  0  0  0  0  0  0  0  0  0  0  0  # atno 16591 bound_to 7831
   -2.8171  -13.1329   27.1036 LP  0  0  0  0  0  0  0  0  0  0  0  0  # atno 16592 bound_to 1821
   -3.8595  -13.8234   25.9050 LP  0  0  0  0  0  0  0  0  0  0  0  0  # atno 16593 bound_to 1821
   -7.9143  -13.7104   18.4423 LP  0  0  0  0  0  0  0  0  0  0  0  0  # atno 16594 bound_to 7834
   -7.2247  -12.3966   17.5487 LP  0  0  0  0  0  0  0  0  0  0  0  0  # atno 16595 bound_to 7834
   -9.0722   -8.4795   14.9618 LP  0  0  0  0  0  0  0  0  0  0  0  0  # atno 16596 bound_to 5717
   -6.3926   -6.4293   16.0200 LP  0  0  0  0  0  0  0  0  0  0  0  0  # atno 16597 bound_to 5767
   -0.1707  -12.8919   18.5606 LP  0  0  0  0  0  0  0  0  0  0  0  0  # atno 16600 bound_to 1745
   -1.0250  -12.8620   20.0670 LP  0  0  0  0  0  0  0  0  0  0  0  0  # atno 16601 bound_to 1745
   -1.6871  -13.6223   24.3076 LP  0  0  0  0  0  0  0  0  0  0  0  0  # atno 16602 bound_to 1818
   -4.0645   -7.0126   14.5088 LP  0  0  0  0  0  0  0  0  0  0  0  0  # atno 16603 bound_to 5772
   -3.1158   -5.9405   13.7231 LP  0  0  0  0  0  0  0  0  0  0  0  0  # atno 16604 bound_to 5772
    1.9707   -7.9449   17.1114 LP  0  0  0  0  0  0  0  0  0  0  0  0  # atno 16605 bound_to 15403
    0.8470  -14.9964   20.8544 LP  0  0  0  0  0  0  0  0  0  0  0  0  # atno 16606 bound_to 1791
   -3.9585  -10.9195   13.6810 LP  0  0  0  0  0  0  0  0  0  0  0  0  # atno 16607 bound_to 5617
   -5.2476   -7.9406   13.2793 LP  0  0  0  0  0  0  0  0  0  0  0  0  # atno 16608 bound_to 5620
   -6.8239   -7.2254   13.2167 LP  0  0  0  0  0  0  0  0  0  0  0  0  # atno 16609 bound_to 5620
  -10.2681  -10.1827   14.6189 LP  0  0  0  0  0  0  0  0  0  0  0  0  # atno 16610 bound_to 7788
   -9.0647  -10.5225   15.8174 LP  0  0  0  0  0  0  0  0  0  0  0  0  # atno 16611 bound_to 7788
  -11.0595  -12.6721   17.7784 LP  0  0  0  0  0  0  0  0  0  0  0  0  # atno 16612 bound_to 7874
    0.0316  -16.5447   22.7757 LP  0  0  0  0  0  0  0  0  0  0  0  0  # atno 16613 bound_to 1794
    0.9261  -16.0192   24.1627 LP  0  0  0  0  0  0  0  0  0  0  0  0  # atno 16614 bound_to 1794
    0.2991  -13.9285   28.6703 LP  0  0  0  0  0  0  0  0  0  0  0  0  # atno 16615 bound_to 1824
   -0.6462  -15.2588   28.6129 LP  0  0  0  0  0  0  0  0  0  0  0  0  # atno 16616 bound_to 1824
   -2.6592  -15.2634   26.5774 LP  0  0  0  0  0  0  0  0  0  0  0  0  # atno 16617 bound_to 1854
  -15.2435  -13.9354   27.3479 LP  0  0  0  0  0  0  0  0  0  0  0  0  # atno 16622 bound_to 9318
  -15.8864  -15.4347   27.9297 LP  0  0  0  0  0  0  0  0  0  0  0  0  # atno 16623 bound_to 9318
  -18.0415  -13.6641   25.8476 LP  0  0  0  0  0  0  0  0  0  0  0  0  # atno 16624 bound_to 9342
  -21.2692   -8.0905   22.1348 LP  0  0  0  0  0  0  0  0  0  0  0  0  # atno 16627 bound_to 9433
  -21.6787   -7.1098   23.5025 LP  0  0  0  0  0  0  0  0  0  0  0  0  # atno 16628 bound_to 9433
  -17.5267   -7.8016   17.2526 LP  0  0  0  0  0  0  0  0  0  0  0  0  # atno 16629 bound_to 9492
  -16.0857   -7.9285   18.0101 LP  0  0  0  0  0  0  0  0  0  0  0  0  # atno 16630 bound_to 9492
  -17.7022  -12.1711   19.0466 LP  0  0  0  0  0  0  0  0  0  0  0  0  # atno 16631 bound_to 7667
  -16.9269  -13.0253   20.3387 LP  0  0  0  0  0  0  0  0  0  0  0  0  # atno 16632 bound_to 7667
  -14.5211  -13.6215   18.4145 LP  0  0  0  0  0  0  0  0  0  0  0  0  # atno 16634 bound_to 7723
  -13.0325  -12.2212   15.6691 LP  0  0  0  0  0  0  0  0  0  0  0  0  # atno 16635 bound_to 7726
  -12.6012  -12.8953   17.2052 LP  0  0  0  0  0  0  0  0  0  0  0  0  # atno 16636 bound_to 7726
  -20.1226   -5.8615   17.2928 LP  0  0  0  0  0  0  0  0  0  0  0  0  # atno 16637 bound_to 10539
  -20.6758   -5.8695   15.6515 LP  0  0  0  0  0  0  0  0  0  0  0  0  # atno 16638 bound_to 10539
   -6.4542  -15.9629   31.6303 LP  0  0  0  0  0  0  0  0  0  0  0  0  # atno 16639 bound_to 1884
   -5.0695  -15.3485   32.2400 LP  0  0  0  0  0  0  0  0  0  0  0  0  # atno 16640 bound_to 1884
  -17.7191  -17.7887   26.9651 LP  0  0  0  0  0  0  0  0  0  0  0  0  # atno 16641 bound_to 9315
   -4.6035  -17.6754   29.4944 LP  0  0  0  0  0  0  0  0  0  0  0  0  # atno 16642 bound_to 1879
   -1.6114  -16.7038   28.9698 LP  0  0  0  0  0  0  0  0  0  0  0  0  # atno 16643 bound_to 1857
   -2.0149  -17.0007   30.6278 LP  0  0  0  0  0  0  0  0  0  0  0  0  # atno 16644 bound_to 1857
  -18.5100  -18.0504   23.5141 LP  0  0  0  0  0  0  0  0  0  0  0  0  # atno 16645 bound_to 7565
  -17.2346  -17.0226   22.9511 LP  0  0  0  0  0  0  0  0  0  0  0  0  # atno 16646 bound_to 7565
  -19.7618  -17.3820   25.9132 LP  0  0  0  0  0  0  0  0  0  0  0  0  # atno 16647 bound_to 9289
  -20.5812  -17.5487   27.4301 LP  0  0  0  0  0  0  0  0  0  0  0  0  # atno 16648 bound_to 9289
  -17.9951  -19.5113   31.0066 LP  0  0  0  0  0  0  0  0  0  0  0  0  # atno 16649 bound_to 9236
  -18.8509  -18.6040   32.2084 LP  0  0  0  0  0  0  0  0  0  0  0  0  # atno 16650 bound_to 9236
  -19.9376  -18.4409   30.1493 LP  0  0  0  0  0  0  0  0  0  0  0  0  # atno 16653 bound_to 9286
  -20.6155  -21.2462   31.2081 LP  0  0  0  0  0  0  0  0  0  0  0  0  # atno 16654 bound_to 9233
  -10.7797  -22.9153   33.5027 LP  0  0  0  0  0  0  0  0  0  0  0  0  # atno 16655 bound_to 3365
  -12.0947  -23.6475   34.3599 LP  0  0  0  0  0  0  0  0  0  0  0  0  # atno 16656 bound_to 3365
   -7.9621  -25.0515   35.7717 LP  0  0  0  0  0  0  0  0  0  0  0  0  # atno 16657 bound_to 3362
   -5.2257  -19.3545   30.2240 LP  0  0  0  0  0  0  0  0  0  0  0  0  # atno 16658 bound_to 1922

> <Gold.Score>
     Fitness  S(hb_ext) S(vdw_ext)  S(hb_int)    S(int)      intcor
     25.64       3.94      16.27       0.00      -0.67      -0.76

> <Gold.Goldscore.Fitness>
25.6413

> <Gold.Goldscore.Internal.Vdw>
-0.8076

> <Gold.Goldscore.Internal.Torsion>
-0.6231

> <Gold.Goldscore.External.Vdw>
16.2720

> <Gold.Goldscore.Internal.HBond>
0.0000

> <Gold.Goldscore.External.HBond>
3.9395

> <Gold.Goldscore.Internal.Correction>
-0.7585

> <Gold.Goldscore.Hbonds>
donor molecule, donor type, donor heavy atom, donor atom, acceptor molecule, acceptor atom, score
      P1  H  7731  7757       L1    17  0.66

> <Gold.Goldscore.Internal.Vdw.Weighted>
-0.8076

> <Gold.Goldscore.Internal.Torsion.Weighted>
-0.6231

> <Gold.Goldscore.External.Vdw.Weighted>
22.3740

> <Gold.Goldscore.Internal.HBond.Weighted>
0.0000

> <Gold.Goldscore.External.HBond.Weighted>
3.9395

> <Gold.Goldscore.Internal.Correction.Weighted>
-0.7585

> <Gold.Rescore>
     Score     S(PLP)   S(hbond)     S(cho)   S(metal)  DE(clash)   DE(tors)     intcor
     23.42     -22.83       1.00       0.00       0.00       0.00       1.20       ----

> <Gold.PLP.Fitness>
23.4199

> <Gold.PLP.PLP>
-22.8265

> <Gold.PLP.part.hbond>
-2.0000

> <Gold.PLP.part.metal>
0.0000

> <Gold.PLP.part.buried>
-2.9560

> <Gold.PLP.part.nonpolar>
-18.7367

> <Gold.PLP.part.repulsive>
0.3835

> <Gold.PLP.ligand.clash>
0.0000

> <Gold.PLP.ligand.torsion>
1.2033

> <Gold.PLP.Chemscore.Hbond>
1.0000

> <Gold.PLP.Chemscore.CHOScore>
0.0000

> <Gold.PLP.Chemscore.Metal>
0.0000

> <Gold.Chemscore.Hbonds>
donor molecule, donor type, donor heavy atom, donor atom, acceptor molecule, acceptor atom, score
      P1  H  7731  7757       L1    17  0.50

> <Gold.PLP.Chemscore.Internal.Correction>
   9.000000E+99

