#       Name:                CT1002167954
#       Creating user name   hitesit
#       Creation time:       Sun Apr 16 22:51:51 2023


#       File generated by GOLD software.
#

@<TRIPOS>MOLECULE
CT1002167954|ligand_prepared|mol2|1|dock2
    29    30     1
SMALL
NO_CHARGES


@<TRIPOS>ATOM
      1 C1         -13.1782   1.3839  21.4781 C.3            1 RES1               0.0000
      2 C2         -12.8397   1.9780  20.0957 C.ar           1 RES1               0.0000
      3 C3         -12.7426  -0.0779  21.4345 C.2            1 RES1               0.0000
      4 C4         -12.4252   2.2272  22.5010 C.2            1 RES1               0.0000
      5 C5         -14.6832   1.4376  21.8297 C.3            1 RES1               0.0000
      6 C6         -13.4279   3.1658  19.6716 C.ar           1 RES1               0.0000
      7 C7         -11.9406   1.3524  19.2361 C.ar           1 RES1               0.0000
      8 N8         -11.6163  -0.4223  22.1221 N.am           1 RES1               0.0000
      9 O9         -13.3557  -0.9079  20.7747 O.2            1 RES1               0.0000
     10 N10        -11.4269   1.6241  23.2203 N.am           1 RES1               0.0000
     11 O11        -12.6761   3.4129  22.6787 O.2            1 RES1               0.0000
     12 C12        -15.0505   0.6466  23.0753 C.3            1 RES1               0.0000
     13 C13        -13.1261   3.7100  18.4342 C.ar           1 RES1               0.0000
     14 C14        -11.6404   1.8982  17.9990 C.ar           1 RES1               0.0000
     15 C15        -10.9678   0.3458  23.0555 C.2            1 RES1               0.0000
     16 C16        -12.2320   3.0770  17.5974 C.ar           1 RES1               0.0000
     17 O17        -10.0288  -0.1080  23.7032 O.2            1 RES1               0.0000
     18 H18        -14.9740   2.4849  21.9780 H              1 RES1               0.0000
     19 H19        -15.2583   1.0469  20.9811 H              1 RES1               0.0000
     20 H20        -14.1358   3.6769  20.3155 H              1 RES1               0.0000
     21 H21        -11.4640   0.4236  19.5306 H              1 RES1               0.0000
     22 H22        -11.2195  -1.3352  21.9238 H              1 RES1               0.0000
     23 H23        -10.9852   2.1796  23.9461 H              1 RES1               0.0000
     24 H24        -16.1173   0.7177  23.2768 H              1 RES1               0.0000
     25 H25        -14.7982  -0.4047  22.9530 H              1 RES1               0.0000
     26 H26        -14.5156   1.0248  23.9440 H              1 RES1               0.0000
     27 H27        -13.5954   4.6372  18.1222 H              1 RES1               0.0000
     28 H28        -10.9366   1.3962  17.3434 H              1 RES1               0.0000
     29 H29        -11.9954   3.5037  16.6283 H              1 RES1               0.0000
@<TRIPOS>BOND
    1    1    2 1     
    2    1    3 1     
    3    1    4 1     
    4    1    5 1     
    5    2    6 ar    
    6    2    7 ar    
    7    3    8 1     
    8    3    9 2     
    9    4   10 1     
   10    4   11 2     
   11    5   12 1     
   12    5   18 1     
   13    5   19 1     
   14    6   13 ar    
   15    6   20 1     
   16    7   14 ar    
   17    7   21 1     
   18    8   15 1     
   19    8   22 1     
   20   10   15 1     
   21   10   23 1     
   22   12   24 1     
   23   12   25 1     
   24   12   26 1     
   25   13   16 ar    
   26   13   27 1     
   27   14   16 ar    
   28   14   28 1     
   29   15   17 2     
   30   16   29 1     
@<TRIPOS>SUBSTRUCTURE
      1 RES1           1
@<TRIPOS>SET
DONOR_HYDROGENS      STATIC     ATOMS    <user>   **** ""
2 22 23
ATOM$RED        STATIC     ATOMS    COLORGROUP SYSTEM
2 22 23
@<TRIPOS>COMMENT
> <Gold.Version>
2022.3.0

> <Gold.Id.Protein>
unknown|3mvj_clean|pdb

> <Gold.Protein.RotatedTorsions>
[ 11826 11799 11798 11795 ] final -177.65 input   60.01 | X-H torsion
[ 11911 11856 11855 11854 ] final   36.11 input   60.02 | X-H torsion
[ 10977 10959 10958 10956 ] final  131.72 input   60.00 | X-H torsion
[ 10969 10948 10949 10950 ] final  -15.79 input   32.02 | X-H torsion
[ 10737 10719 10718 10716 ] final -122.80 input   60.01 | X-H torsion
[ 12076 12056 12057 12058 ] final -136.67 input   63.02 | X-H torsion
[ 10918 10911 10912 10913 ] final  -25.40 input  -92.90 | X-H torsion
[ 6164 6140 6141 6142 ] final   71.92 input   39.58 | X-H torsion
[ 6112 6105 6106 6107 ] final -104.50 input  -69.34 | X-H torsion
[ 5955 5918 5919 5920 ] final -164.42 input  125.26 | X-H torsion
[ 6027 5990 5991 5992 ] final   21.80 input  110.40 | X-H torsion
[ 6075 6056 6057 6058 ] final  111.26 input  107.04 | X-H torsion
[ 11686 11631 11630 11629 ] final  -11.70 input   60.02 | X-H torsion
[ 11211 11201 11202 11203 ] final  -45.84 input   18.84 | X-H torsion
[ 11249 11237 11238 11239 ] final   25.51 input  111.29 | X-H torsion
[ 11173 11153 11154 11155 ] final -163.56 input   30.50 | X-H torsion
[ 11292 11275 11276 11277 ] final  107.75 input   58.53 | X-H torsion
[ 9451 9430 9431 9432 ] final -169.79 input  110.06 | X-H torsion
[ 11493 11474 11475 11476 ] final  -19.05 input  115.95 | X-H torsion
[ 11385 11366 11367 11368 ] final  -25.64 input  117.79 | X-H torsion
[ 11568 11550 11549 11547 ] final  112.00 input   59.97 | X-H torsion
[ 9369 9348 9346 9343 ] final -145.30 input   60.02 | X-H torsion
[ 9511 9481 9482 9483 ] final  -29.69 input   75.78 | X-H torsion
[ 15475 15466 15465 15463 ] final -163.59 input   60.00 | X-H torsion
[ 7755 7731 7730 7729 ] final  -51.07 input   60.02 | X-H torsion
[ 7846 7831 7832 7833 ] final -130.71 input  113.97 | X-H torsion
[ 5737 5717 5718 5719 ] final   62.00 input  137.93 | X-H torsion
[ 5778 5767 5768 5769 ] final    8.17 input  116.46 | X-H torsion
[ 1839 1818 1819 1820 ] final -110.99 input   43.70 | X-H torsion
[ 5782 5772 5771 5768 ] final -163.62 input   59.97 | X-H torsion
[ 15411 15403 15404 15405 ] final   47.40 input  102.24 | X-H torsion
[ 1801 1791 1792 1793 ] final   -2.11 input  -10.55 | X-H torsion
[ 5632 5617 5618 5619 ] final -166.81 input   93.34 | X-H torsion
[ 7884 7874 7875 7876 ] final -114.78 input   68.03 | X-H torsion
[ 1845 1824 1822 1819 ] final -159.36 input   60.02 | X-H torsion
[ 1864 1854 1855 1856 ] final  -70.47 input   57.50 | X-H torsion
[ 9363 9342 9343 9344 ] final  137.15 input   55.58 | X-H torsion
[ 9519 9492 9491 9489 ] final  -48.26 input   60.02 | X-H torsion
[ 7745 7723 7724 7725 ] final  -48.28 input   17.81 | X-H torsion
[ 1896 1884 1883 1880 ] final -100.30 input   60.01 | X-H torsion
[ 9325 9315 9316 9317 ] final   11.60 input  -36.21 | X-H torsion
[ 1892 1879 1880 1881 ] final  131.96 input   98.21 | X-H torsion
[ 9302 9286 9287 9288 ] final  -24.87 input   37.00 | X-H torsion
[ 9263 9233 9234 9235 ] final  -21.39 input   95.32 | X-H torsion
[ 3370 3362 3363 3364 ] final  -31.45 input   97.92 | X-H torsion
[ 1947 1922 1923 1924 ] final   -3.85 input  104.43 | X-H torsion
[ 12159 12148 12149 12150 ] final -146.92 input  116.04 | X-H torsion
[ 11673 11649 11648 11647 ] final  -31.41 input   59.99 | X-H torsion
[ 12008 11984 11985 11986 ] final  -69.74 input   61.04 | X-H torsion
[ 11113 11093 11094 11095 ] final  143.56 input   39.50 | X-H torsion
[ 7924 7916 7917 7918 ] final -137.24 input   66.66 | X-H torsion
[ 8650 8630 8631 8632 ] final -127.19 input   75.31 | X-H torsion
[ 9566 9536 9537 9538 ] final  133.03 input  103.50 | X-H torsion
[ 16472 10886 10885 10884 ] final  -23.91 input    0.00 | X-H torsion
[ 16475 11004 11003 11002 ] final  127.97 input    0.00 | X-H torsion
[ 16477 10914 10913 10912 ] final  139.22 input    0.00 | X-H torsion
[ 16479 10951 10950 10949 ] final  153.28 input   -0.00 | X-H torsion
[ 16484 11987 11986 11985 ] final -178.59 input    0.00 | X-H torsion
[ 16486 12059 12058 12057 ] final   42.19 input   -0.00 | X-H torsion
[ 16490 11046 11045 11044 ] final  -22.50 input    0.00 | X-H torsion
[ 16500 6108 6107 6106 ] final -108.28 input    0.00 | X-H torsion
[ 16503 5921 5920 5919 ] final   73.12 input   -0.00 | X-H torsion
[ 16506 6059 6058 6057 ] final  -45.00 input    0.00 | X-H torsion
[ 16510 5858 5857 5856 ] final -158.91 input    0.00 | X-H torsion
[ 16518 5993 5992 5991 ] final   60.47 input   -0.00 | X-H torsion
[ 16523 11156 11155 11154 ] final  -67.50 input    0.00 | X-H torsion
[ 16528 11204 11203 11202 ] final   95.62 input    0.00 | X-H torsion
[ 16540 11096 11095 11094 ] final -156.09 input   -0.00 | X-H torsion
[ 16544 10768 10767 10766 ] final   73.12 input   -0.00 | X-H torsion
[ 16552 11240 11239 11238 ] final   56.25 input    0.00 | X-H torsion
[ 16558 11278 11277 11276 ] final   52.03 input   -0.00 | X-H torsion
[ 16562 11325 11324 11323 ] final  -52.03 input   -0.00 | X-H torsion
[ 16566 9387 9386 9385 ] final   50.62 input   -0.00 | X-H torsion
[ 16570 9345 9344 9343 ] final -112.50 input    0.00 | X-H torsion
[ 16579 5720 5719 5718 ] final   85.78 input    0.00 | X-H torsion
[ 16592 1821 1820 1819 ] final  -61.87 input    0.00 | X-H torsion
[ 16594 7834 7833 7832 ] final  -84.37 input    0.00 | X-H torsion
[ 16600 1745 1744 1743 ] final  -82.97 input    0.00 | X-H torsion
[ 16608 5620 5619 5618 ] final  -82.97 input   -0.00 | X-H torsion
[ 16610 7788 7787 7786 ] final   73.12 input   -0.00 | X-H torsion
[ 16613 1794 1793 1792 ] final   28.12 input   -0.00 | X-H torsion
[ 16622 9318 9317 9316 ] final   -0.00 input   -0.00 | X-H torsion
[ 16627 9433 9432 9431 ] final -151.88 input    0.00 | X-H torsion
[ 16631 7667 7666 7665 ] final   -8.44 input   -0.00 | X-H torsion
[ 16635 7726 7725 7724 ] final  -32.34 input    0.00 | X-H torsion
[ 16637 10539 10538 10537 ] final   39.37 input   -0.00 | X-H torsion
[ 16643 1857 1856 1855 ] final  -35.16 input    0.00 | X-H torsion
[ 16645 7565 7564 7563 ] final  -67.50 input    0.00 | X-H torsion
[ 16647 9289 9288 9287 ] final  171.56 input    0.00 | X-H torsion
[ 16649 9236 9235 9234 ] final  -87.19 input    0.00 | X-H torsion
[ 16655 3365 3364 3363 ] final  -85.78 input    0.00 | X-H torsion

> <Gold.Protein.ActiveResidues>
 LEU49   GLY50   THR51   GLY52   SER53   PHE54   VAL57   LEU82   LYS83   GLN84  
 HIS87   GLU127  PHE129  SER130  LEU132  ARG133  ARG134  ILE135  GLY136  ARG137 
 ARG165  ASP166  LEU167  LYS168  PRO169  GLU170  ASN171  LEU172  LEU173  ASP184 
 GLY186  PHE187  TPO197  LEU198  CYS199  GLY200  THR201  PRO202  GLU203  TYR204 
 LEU205  ILE209  ILE210  VAL226  LEU227  TYR229  GLU230  ALA233  GLY234  TYR235 
 PRO236  PRO237  PHE238  PHE239  ALA240  ASP241  GLN242  PRO243  ILE244  GLN245 
 ILE246  TYR247  GLU248  LYS249  ILE250  VAL251  SER252  LYS254  ARG256  PHE257 
 PRO258  SER259  PHE327  ASP328  TYR330 

> <Gold.Protein.RotatedAtoms>
    1.4423  -14.7141   21.6635 H   0  0  0  0  0  0  0  0  0  0  0  0  # atno 1801 bound_to 1791
   -0.8974  -14.7778   23.6830 H   0  0  0  0  0  0  0  0  0  0  0  0  # atno 1839 bound_to 1818
    0.2916  -13.9253   28.6639 H   0  0  0  0  0  0  0  0  0  0  0  0  # atno 1845 bound_to 1824
   -2.1041  -15.3574   27.3306 H   0  0  0  0  0  0  0  0  0  0  0  0  # atno 1864 bound_to 1854
   -5.2897  -16.4801   30.1397 H   0  0  0  0  0  0  0  0  0  0  0  0  # atno 1892 bound_to 1879
   -5.4531  -15.3853   33.1112 H   0  0  0  0  0  0  0  0  0  0  0  0  # atno 1896 bound_to 1884
   -3.6623  -19.0761   30.3573 H   0  0  0  0  0  0  0  0  0  0  0  0  # atno 1947 bound_to 1922
   -8.3978  -25.0235   36.5782 H   0  0  0  0  0  0  0  0  0  0  0  0  # atno 3370 bound_to 3362
   -3.9879  -10.9667   13.6587 H   0  0  0  0  0  0  0  0  0  0  0  0  # atno 5632 bound_to 5617
   -8.0082   -8.0054   14.5765 H   0  0  0  0  0  0  0  0  0  0  0  0  # atno 5737 bound_to 5717
   -7.2894   -5.7786   14.7336 H   0  0  0  0  0  0  0  0  0  0  0  0  # atno 5778 bound_to 5767
   -3.1898   -6.6232   14.3038 H   0  0  0  0  0  0  0  0  0  0  0  0  # atno 5782 bound_to 5772
   -9.7761   -2.2302   15.1802 H   0  0  0  0  0  0  0  0  0  0  0  0  # atno 5955 bound_to 5918
   -7.8691    0.0074   13.9561 H   0  0  0  0  0  0  0  0  0  0  0  0  # atno 6027 bound_to 5990
   -7.8470    0.3985   11.8232 H   0  0  0  0  0  0  0  0  0  0  0  0  # atno 6075 bound_to 6056
   -9.5668    1.8626   13.0520 H   0  0  0  0  0  0  0  0  0  0  0  0  # atno 6112 bound_to 6105
  -12.9959    3.1033   11.2081 H   0  0  0  0  0  0  0  0  0  0  0  0  # atno 6164 bound_to 6140
  -15.2873  -13.2368   17.1646 H   0  0  0  0  0  0  0  0  0  0  0  0  # atno 7745 bound_to 7723
  -11.6594  -11.5827   23.9858 H   0  0  0  0  0  0  0  0  0  0  0  0  # atno 7755 bound_to 7731
  -12.8859  -12.5702   24.5032 H   0  0  0  0  0  0  0  0  0  0  0  0  # atno 7756 bound_to 7731
  -11.3458  -13.1673   24.3583 H   0  0  0  0  0  0  0  0  0  0  0  0  # atno 7757 bound_to 7731
  -10.5140   -9.3892   17.2679 H   0  0  0  0  0  0  0  0  0  0  0  0  # atno 7846 bound_to 7831
   -9.3894  -12.4845   17.8134 H   0  0  0  0  0  0  0  0  0  0  0  0  # atno 7884 bound_to 7874
  -10.5619  -14.3706   15.5057 H   0  0  0  0  0  0  0  0  0  0  0  0  # atno 7924 bound_to 7916
  -13.0101  -22.9689   23.9586 H   0  0  0  0  0  0  0  0  0  0  0  0  # atno 8650 bound_to 8630
  -20.8220  -21.2392   30.6555 H   0  0  0  0  0  0  0  0  0  0  0  0  # atno 9263 bound_to 9233
  -20.4752  -18.1812   29.1759 H   0  0  0  0  0  0  0  0  0  0  0  0  # atno 9302 bound_to 9286
  -17.2172  -16.5257   28.0407 H   0  0  0  0  0  0  0  0  0  0  0  0  # atno 9325 bound_to 9315
  -16.7077  -14.1452   24.9350 H   0  0  0  0  0  0  0  0  0  0  0  0  # atno 9363 bound_to 9342
  -13.7258  -12.7471   24.2527 H   0  0  0  0  0  0  0  0  0  0  0  0  # atno 9369 bound_to 9348
  -18.2815   -7.8313   26.5099 H   0  0  0  0  0  0  0  0  0  0  0  0  # atno 9451 bound_to 9430
  -20.3140   -9.3376   24.4159 H   0  0  0  0  0  0  0  0  0  0  0  0  # atno 9511 bound_to 9481
  -17.1289   -6.7859   18.4756 H   0  0  0  0  0  0  0  0  0  0  0  0  # atno 9519 bound_to 9492
  -20.9330  -10.9401   25.0694 H   0  0  0  0  0  0  0  0  0  0  0  0  # atno 9566 bound_to 9536
  -24.5427    1.0274   18.6725 H   0  0  0  0  0  0  0  0  0  0  0  0  # atno 10737 bound_to 10719
  -17.6878    0.2945   14.8870 H   0  0  0  0  0  0  0  0  0  0  0  0  # atno 10918 bound_to 10911
  -17.3482    0.0361   16.3667 H   0  0  0  0  0  0  0  0  0  0  0  0  # atno 10969 bound_to 10948
  -21.5325    5.7717   17.6085 H   0  0  0  0  0  0  0  0  0  0  0  0  # atno 10977 bound_to 10959
  -23.4322   -2.9074   22.2084 H   0  0  0  0  0  0  0  0  0  0  0  0  # atno 11113 bound_to 11093
  -21.2194   -2.1131   24.7925 H   0  0  0  0  0  0  0  0  0  0  0  0  # atno 11173 bound_to 11153
  -18.2823   -0.6287   27.6784 H   0  0  0  0  0  0  0  0  0  0  0  0  # atno 11211 bound_to 11201
  -18.2564    0.0483   31.5817 H   0  0  0  0  0  0  0  0  0  0  0  0  # atno 11249 bound_to 11237
  -17.7359   -0.7043   33.5293 H   0  0  0  0  0  0  0  0  0  0  0  0  # atno 11292 bound_to 11275
  -19.9660   -5.4867   33.3375 H   0  0  0  0  0  0  0  0  0  0  0  0  # atno 11385 bound_to 11366
  -22.8986   -3.6859   31.6654 H   0  0  0  0  0  0  0  0  0  0  0  0  # atno 11493 bound_to 11474
  -18.6827   -9.9472   32.2108 H   0  0  0  0  0  0  0  0  0  0  0  0  # atno 11568 bound_to 11550
  -25.4343    2.0464   28.7287 H   0  0  0  0  0  0  0  0  0  0  0  0  # atno 11673 bound_to 11649
  -23.9095    2.6810   28.8754 H   0  0  0  0  0  0  0  0  0  0  0  0  # atno 11674 bound_to 11649
  -24.7786    2.9261   27.4854 H   0  0  0  0  0  0  0  0  0  0  0  0  # atno 11675 bound_to 11649
   -7.8316    8.9086   25.7273 H   0  0  0  0  0  0  0  0  0  0  0  0  # atno 11686 bound_to 11631
   -8.8352    9.0700   27.0359 H   0  0  0  0  0  0  0  0  0  0  0  0  # atno 11687 bound_to 11631
   -9.1734    7.9451   25.8674 H   0  0  0  0  0  0  0  0  0  0  0  0  # atno 11688 bound_to 11631
  -13.1582   15.2931   23.3493 H   0  0  0  0  0  0  0  0  0  0  0  0  # atno 11826 bound_to 11799
  -17.5086   14.8647   25.1721 H   0  0  0  0  0  0  0  0  0  0  0  0  # atno 11911 bound_to 11856
  -18.3086   16.2351   24.6924 H   0  0  0  0  0  0  0  0  0  0  0  0  # atno 11912 bound_to 11856
  -16.9228   15.7682   23.9114 H   0  0  0  0  0  0  0  0  0  0  0  0  # atno 11913 bound_to 11856
  -29.0352    0.5989   19.1463 H   0  0  0  0  0  0  0  0  0  0  0  0  # atno 12008 bound_to 11984
  -27.6775    2.4363   17.3678 H   0  0  0  0  0  0  0  0  0  0  0  0  # atno 12076 bound_to 12056
  -25.5521    7.1572   13.6090 H   0  0  0  0  0  0  0  0  0  0  0  0  # atno 12159 bound_to 12148
    1.3697   -8.9209   18.0052 H   0  0  0  0  0  0  0  0  0  0  0  0  # atno 15411 bound_to 15403
   -2.0672   -9.6104   22.2792 H   0  0  0  0  0  0  0  0  0  0  0  0  # atno 15475 bound_to 15466
  -13.4036   16.8914   23.1679 LP  0  0  0  0  0  0  0  0  0  0  0  0  # atno 16466 bound_to 11799
  -12.3309   16.1137   22.2135 LP  0  0  0  0  0  0  0  0  0  0  0  0  # atno 16467 bound_to 11799
  -22.5624    4.5682   17.9818 LP  0  0  0  0  0  0  0  0  0  0  0  0  # atno 16468 bound_to 10959
  -21.9045    4.6502   16.4895 LP  0  0  0  0  0  0  0  0  0  0  0  0  # atno 16469 bound_to 10959
  -17.9596    3.7268   13.9014 LP  0  0  0  0  0  0  0  0  0  0  0  0  # atno 16472 bound_to 10886
  -16.7458    3.2104   15.0238 LP  0  0  0  0  0  0  0  0  0  0  0  0  # atno 16473 bound_to 10886
  -16.3395    1.4057   16.7900 LP  0  0  0  0  0  0  0  0  0  0  0  0  # atno 16474 bound_to 10948
  -21.2194    0.1144   20.6064 LP  0  0  0  0  0  0  0  0  0  0  0  0  # atno 16475 bound_to 11004
  -20.0770   -0.5414   21.7310 LP  0  0  0  0  0  0  0  0  0  0  0  0  # atno 16476 bound_to 11004
  -14.7174    1.6104   18.0478 LP  0  0  0  0  0  0  0  0  0  0  0  0  # atno 16477 bound_to 10914
  -13.7936    0.7050   16.8959 LP  0  0  0  0  0  0  0  0  0  0  0  0  # atno 16478 bound_to 10914
  -19.7152   -1.5270   17.5911 LP  0  0  0  0  0  0  0  0  0  0  0  0  # atno 16479 bound_to 10951
  -19.3682    0.1220   17.1904 LP  0  0  0  0  0  0  0  0  0  0  0  0  # atno 16480 bound_to 10951
  -24.2661    1.7786   17.2559 LP  0  0  0  0  0  0  0  0  0  0  0  0  # atno 16482 bound_to 10719
  -23.0421    1.5419   18.3106 LP  0  0  0  0  0  0  0  0  0  0  0  0  # atno 16483 bound_to 10719
  -25.7623    1.7070   17.1003 LP  0  0  0  0  0  0  0  0  0  0  0  0  # atno 16484 bound_to 11987
  -26.2122    1.2975   18.7220 LP  0  0  0  0  0  0  0  0  0  0  0  0  # atno 16485 bound_to 11987
  -27.4346    5.5305   16.0279 LP  0  0  0  0  0  0  0  0  0  0  0  0  # atno 16486 bound_to 12059
  -26.8036    6.0806   14.5116 LP  0  0  0  0  0  0  0  0  0  0  0  0  # atno 16487 bound_to 12059
  -24.6411   -0.1370   21.6990 LP  0  0  0  0  0  0  0  0  0  0  0  0  # atno 16490 bound_to 11046
  -24.7440   -0.9789   23.2092 LP  0  0  0  0  0  0  0  0  0  0  0  0  # atno 16491 bound_to 11046
  -28.3340    3.9407   16.7703 LP  0  0  0  0  0  0  0  0  0  0  0  0  # atno 16492 bound_to 12056
  -17.1548    1.1939   13.4827 LP  0  0  0  0  0  0  0  0  0  0  0  0  # atno 16493 bound_to 10911
  -12.8592    0.2361   13.4414 LP  0  0  0  0  0  0  0  0  0  0  0  0  # atno 16500 bound_to 6108
  -13.5187    1.5299   14.3854 LP  0  0  0  0  0  0  0  0  0  0  0  0  # atno 16501 bound_to 6108
  -12.4270    1.7833   12.2028 LP  0  0  0  0  0  0  0  0  0  0  0  0  # atno 16502 bound_to 6140
   -8.2412    2.3022   16.2575 LP  0  0  0  0  0  0  0  0  0  0  0  0  # atno 16503 bound_to 5921
   -8.8799    2.3186   14.6476 LP  0  0  0  0  0  0  0  0  0  0  0  0  # atno 16504 bound_to 5921
  -10.1014    2.4489   11.4915 LP  0  0  0  0  0  0  0  0  0  0  0  0  # atno 16505 bound_to 6105
   -9.1961    4.7177   10.9080 LP  0  0  0  0  0  0  0  0  0  0  0  0  # atno 16506 bound_to 6059
  -10.8795    4.3175   10.9850 LP  0  0  0  0  0  0  0  0  0  0  0  0  # atno 16507 bound_to 6059
   -9.6577    0.7120   13.9454 LP  0  0  0  0  0  0  0  0  0  0  0  0  # atno 16510 bound_to 5858
  -10.8580    0.0606   12.8800 LP  0  0  0  0  0  0  0  0  0  0  0  0  # atno 16511 bound_to 5858
   -8.6257   -1.5215   14.0740 LP  0  0  0  0  0  0  0  0  0  0  0  0  # atno 16516 bound_to 5918
   -6.7981    0.0748   15.3427 LP  0  0  0  0  0  0  0  0  0  0  0  0  # atno 16517 bound_to 5990
   -5.8717    3.6379   12.2167 LP  0  0  0  0  0  0  0  0  0  0  0  0  # atno 16518 bound_to 5993
   -7.5527    3.9383   12.5062 LP  0  0  0  0  0  0  0  0  0  0  0  0  # atno 16519 bound_to 5993
   -7.2253    1.9078   12.4287 LP  0  0  0  0  0  0  0  0  0  0  0  0  # atno 16520 bound_to 6056
  -20.7353    1.2926   26.6806 LP  0  0  0  0  0  0  0  0  0  0  0  0  # atno 16523 bound_to 11156
  -21.5506    0.4396   27.9486 LP  0  0  0  0  0  0  0  0  0  0  0  0  # atno 16524 bound_to 11156
  -19.9249   -1.0853   28.0873 LP  0  0  0  0  0  0  0  0  0  0  0  0  # atno 16525 bound_to 11201
  -16.0551   -0.2498   29.1668 LP  0  0  0  0  0  0  0  0  0  0  0  0  # atno 16528 bound_to 11204
  -16.8288   -1.6645   29.7994 LP  0  0  0  0  0  0  0  0  0  0  0  0  # atno 16529 bound_to 11204
  -17.5806    1.3494   30.6304 LP  0  0  0  0  0  0  0  0  0  0  0  0  # atno 16530 bound_to 11237
  -21.7717   -0.6909   25.6508 LP  0  0  0  0  0  0  0  0  0  0  0  0  # atno 16533 bound_to 11153
  -20.0208   -3.6443   25.3420 LP  0  0  0  0  0  0  0  0  0  0  0  0  # atno 16540 bound_to 11096
  -20.9061   -4.0849   23.9200 LP  0  0  0  0  0  0  0  0  0  0  0  0  # atno 16541 bound_to 11096
  -15.9747   -2.0899   14.9928 LP  0  0  0  0  0  0  0  0  0  0  0  0  # atno 16544 bound_to 10768
  -17.0283   -1.2809   13.8812 LP  0  0  0  0  0  0  0  0  0  0  0  0  # atno 16545 bound_to 10768
  -14.2449   -1.0935   32.9993 LP  0  0  0  0  0  0  0  0  0  0  0  0  # atno 16552 bound_to 11240
  -15.0034   -2.3730   32.1119 LP  0  0  0  0  0  0  0  0  0  0  0  0  # atno 16553 bound_to 11240
  -16.7810   -1.3265   32.2044 LP  0  0  0  0  0  0  0  0  0  0  0  0  # atno 16554 bound_to 11275
  -19.1510   -2.7427   31.8345 LP  0  0  0  0  0  0  0  0  0  0  0  0  # atno 16558 bound_to 11278
  -19.9849   -3.9828   32.7101 LP  0  0  0  0  0  0  0  0  0  0  0  0  # atno 16559 bound_to 11278
  -18.7165   -9.2784   25.6281 LP  0  0  0  0  0  0  0  0  0  0  0  0  # atno 16561 bound_to 9430
  -20.8352   -5.6440   31.2379 LP  0  0  0  0  0  0  0  0  0  0  0  0  # atno 16562 bound_to 11325
  -21.5636   -6.9037   32.1773 LP  0  0  0  0  0  0  0  0  0  0  0  0  # atno 16563 bound_to 11325
  -21.2393   -3.2116   31.3621 LP  0  0  0  0  0  0  0  0  0  0  0  0  # atno 16564 bound_to 11474
  -19.5309   -6.2444   34.8417 LP  0  0  0  0  0  0  0  0  0  0  0  0  # atno 16565 bound_to 11366
  -21.0550   -8.5435   27.6376 LP  0  0  0  0  0  0  0  0  0  0  0  0  # atno 16566 bound_to 9387
  -21.2204   -8.9490   25.9618 LP  0  0  0  0  0  0  0  0  0  0  0  0  # atno 16567 bound_to 9387
  -19.0670  -10.6800   30.8096 LP  0  0  0  0  0  0  0  0  0  0  0  0  # atno 16568 bound_to 11550
  -19.4203  -11.3976   32.2333 LP  0  0  0  0  0  0  0  0  0  0  0  0  # atno 16569 bound_to 11550
  -18.7271  -10.6382   24.7522 LP  0  0  0  0  0  0  0  0  0  0  0  0  # atno 16570 bound_to 9345
  -19.1419  -12.1809   25.4217 LP  0  0  0  0  0  0  0  0  0  0  0  0  # atno 16571 bound_to 9345
  -14.9817  -13.7079   23.8692 LP  0  0  0  0  0  0  0  0  0  0  0  0  # atno 16572 bound_to 9348
  -14.4905  -13.5818   25.4215 LP  0  0  0  0  0  0  0  0  0  0  0  0  # atno 16573 bound_to 9348
  -18.8689   -9.2113   23.4379 LP  0  0  0  0  0  0  0  0  0  0  0  0  # atno 16574 bound_to 9481
   -8.3619   -3.7355   16.6814 LP  0  0  0  0  0  0  0  0  0  0  0  0  # atno 16579 bound_to 5720
   -8.5776   -3.6963   14.9633 LP  0  0  0  0  0  0  0  0  0  0  0  0  # atno 16580 bound_to 5720
   -1.8540  -10.9580   21.3926 LP  0  0  0  0  0  0  0  0  0  0  0  0  # atno 16587 bound_to 15466
   -1.2862   -9.5247   20.8544 LP  0  0  0  0  0  0  0  0  0  0  0  0  # atno 16588 bound_to 15466
  -11.4511  -10.7670   17.8203 LP  0  0  0  0  0  0  0  0  0  0  0  0  # atno 16591 bound_to 7831
   -2.6993  -13.0624   26.9152 LP  0  0  0  0  0  0  0  0  0  0  0  0  # atno 16592 bound_to 1821
   -3.9772  -13.8940   26.0934 LP  0  0  0  0  0  0  0  0  0  0  0  0  # atno 16593 bound_to 1821
   -7.3530  -12.7282   17.2226 LP  0  0  0  0  0  0  0  0  0  0  0  0  # atno 16594 bound_to 7834
   -7.7860  -13.3788   18.7683 LP  0  0  0  0  0  0  0  0  0  0  0  0  # atno 16595 bound_to 7834
   -9.7089   -7.6815   14.2854 LP  0  0  0  0  0  0  0  0  0  0  0  0  # atno 16596 bound_to 5717
   -6.5953   -6.1811   16.2891 LP  0  0  0  0  0  0  0  0  0  0  0  0  # atno 16597 bound_to 5767
   -0.2268  -12.1133   19.4846 LP  0  0  0  0  0  0  0  0  0  0  0  0  # atno 16600 bound_to 1745
   -0.9689  -13.6406   19.1429 LP  0  0  0  0  0  0  0  0  0  0  0  0  # atno 16601 bound_to 1745
   -0.9798  -13.2691   24.5647 LP  0  0  0  0  0  0  0  0  0  0  0  0  # atno 16602 bound_to 1818
   -3.9220   -5.5787   13.2933 LP  0  0  0  0  0  0  0  0  0  0  0  0  # atno 16603 bound_to 5772
   -4.8050   -6.6803   14.1140 LP  0  0  0  0  0  0  0  0  0  0  0  0  # atno 16604 bound_to 5772
    1.1566   -7.4382   17.1043 LP  0  0  0  0  0  0  0  0  0  0  0  0  # atno 16605 bound_to 15403
    0.7277  -13.6826   20.4426 LP  0  0  0  0  0  0  0  0  0  0  0  0  # atno 16606 bound_to 1791
   -4.2639   -9.3095   13.1634 LP  0  0  0  0  0  0  0  0  0  0  0  0  # atno 16607 bound_to 5617
   -6.2061   -7.4259   14.0825 LP  0  0  0  0  0  0  0  0  0  0  0  0  # atno 16608 bound_to 5620
   -5.8654   -7.7401   12.4136 LP  0  0  0  0  0  0  0  0  0  0  0  0  # atno 16609 bound_to 5620
   -9.5688   -9.4979   15.1183 LP  0  0  0  0  0  0  0  0  0  0  0  0  # atno 16610 bound_to 7788
   -9.7640  -11.2073   15.3180 LP  0  0  0  0  0  0  0  0  0  0  0  0  # atno 16611 bound_to 7788
  -11.0618  -12.5742   17.3264 LP  0  0  0  0  0  0  0  0  0  0  0  0  # atno 16612 bound_to 7874
    0.9798  -15.9916   22.8252 LP  0  0  0  0  0  0  0  0  0  0  0  0  # atno 16613 bound_to 1794
   -0.0221  -16.5722   24.1132 LP  0  0  0  0  0  0  0  0  0  0  0  0  # atno 16614 bound_to 1794
   -0.6392  -15.2592   28.6159 LP  0  0  0  0  0  0  0  0  0  0  0  0  # atno 16615 bound_to 1824
   -1.2059  -13.8433   28.0324 LP  0  0  0  0  0  0  0  0  0  0  0  0  # atno 16616 bound_to 1824
   -2.7056  -16.6936   26.3648 LP  0  0  0  0  0  0  0  0  0  0  0  0  # atno 16617 bound_to 1854
  -15.7499  -15.5175   27.7902 LP  0  0  0  0  0  0  0  0  0  0  0  0  # atno 16622 bound_to 9318
  -15.3801  -13.8527   27.4874 LP  0  0  0  0  0  0  0  0  0  0  0  0  # atno 16623 bound_to 9318
  -17.8471  -13.8367   26.2264 LP  0  0  0  0  0  0  0  0  0  0  0  0  # atno 16624 bound_to 9342
  -21.8663   -8.3715   22.7854 LP  0  0  0  0  0  0  0  0  0  0  0  0  # atno 16627 bound_to 9433
  -21.0817   -6.8288   22.8519 LP  0  0  0  0  0  0  0  0  0  0  0  0  # atno 16628 bound_to 9433
  -17.5416   -7.7852   17.2593 LP  0  0  0  0  0  0  0  0  0  0  0  0  # atno 16629 bound_to 9492
  -16.0913   -7.9429   17.9929 LP  0  0  0  0  0  0  0  0  0  0  0  0  # atno 16630 bound_to 9492
  -17.9149  -13.2089   19.5637 LP  0  0  0  0  0  0  0  0  0  0  0  0  # atno 16631 bound_to 7667
  -16.7143  -11.9874   19.8216 LP  0  0  0  0  0  0  0  0  0  0  0  0  # atno 16632 bound_to 7667
  -15.2186  -13.4743   18.9011 LP  0  0  0  0  0  0  0  0  0  0  0  0  # atno 16634 bound_to 7723
  -12.9401  -13.0521   17.1378 LP  0  0  0  0  0  0  0  0  0  0  0  0  # atno 16635 bound_to 7726
  -12.6935  -12.0645   15.7365 LP  0  0  0  0  0  0  0  0  0  0  0  0  # atno 16636 bound_to 7726
  -20.5377   -5.7129   17.3133 LP  0  0  0  0  0  0  0  0  0  0  0  0  # atno 16637 bound_to 10539
  -20.2606   -6.0181   15.6310 LP  0  0  0  0  0  0  0  0  0  0  0  0  # atno 16638 bound_to 10539
   -6.8242  -15.9948   32.4823 LP  0  0  0  0  0  0  0  0  0  0  0  0  # atno 16639 bound_to 1884
   -5.5645  -15.6352   31.5074 LP  0  0  0  0  0  0  0  0  0  0  0  0  # atno 16640 bound_to 1884
  -17.9606  -17.7375   27.0165 LP  0  0  0  0  0  0  0  0  0  0  0  0  # atno 16641 bound_to 9315
   -3.8630  -17.2589   29.4939 LP  0  0  0  0  0  0  0  0  0  0  0  0  # atno 16642 bound_to 1879
   -1.6431  -17.0611   28.9757 LP  0  0  0  0  0  0  0  0  0  0  0  0  # atno 16643 bound_to 1857
   -1.9832  -16.6434   30.6219 LP  0  0  0  0  0  0  0  0  0  0  0  0  # atno 16644 bound_to 1857
  -18.5870  -17.0570   23.1362 LP  0  0  0  0  0  0  0  0  0  0  0  0  # atno 16645 bound_to 7565
  -17.1576  -18.0160   23.3289 LP  0  0  0  0  0  0  0  0  0  0  0  0  # atno 16646 bound_to 7565
  -19.8989  -16.7714   26.2311 LP  0  0  0  0  0  0  0  0  0  0  0  0  # atno 16647 bound_to 9289
  -20.4442  -18.1593   27.1122 LP  0  0  0  0  0  0  0  0  0  0  0  0  # atno 16648 bound_to 9289
  -18.5143  -18.2159   31.7895 LP  0  0  0  0  0  0  0  0  0  0  0  0  # atno 16649 bound_to 9236
  -18.3316  -19.8994   31.4255 LP  0  0  0  0  0  0  0  0  0  0  0  0  # atno 16650 bound_to 9236
  -19.8021  -19.6833   29.7645 LP  0  0  0  0  0  0  0  0  0  0  0  0  # atno 16653 bound_to 9286
  -22.0920  -21.0028   31.8350 LP  0  0  0  0  0  0  0  0  0  0  0  0  # atno 16654 bound_to 9233
  -11.8921  -22.9779   34.6028 LP  0  0  0  0  0  0  0  0  0  0  0  0  # atno 16655 bound_to 3365
  -10.9823  -23.5849   33.2597 LP  0  0  0  0  0  0  0  0  0  0  0  0  # atno 16656 bound_to 3365
   -7.1319  -23.8983   36.1466 LP  0  0  0  0  0  0  0  0  0  0  0  0  # atno 16657 bound_to 3362
   -5.2648  -19.5080   30.9207 LP  0  0  0  0  0  0  0  0  0  0  0  0  # atno 16658 bound_to 1922

> <Gold.Score>
     Fitness  S(hb_ext) S(vdw_ext)  S(hb_int)    S(int)      intcor
     21.39       0.00      16.37       0.00      -1.12      -0.77

> <Gold.Goldscore.Fitness>
21.3924

> <Gold.Goldscore.Internal.Vdw>
-1.3664

> <Gold.Goldscore.Internal.Torsion>
-0.5254

> <Gold.Goldscore.External.Vdw>
16.3744

> <Gold.Goldscore.Internal.HBond>
0.0000

> <Gold.Goldscore.External.HBond>
0.0000

> <Gold.Goldscore.Internal.Correction>
-0.7693

> <Gold.Goldscore.Internal.Vdw.Weighted>
-1.3664

> <Gold.Goldscore.Internal.Torsion.Weighted>
-0.5254

> <Gold.Goldscore.External.Vdw.Weighted>
22.5149

> <Gold.Goldscore.Internal.HBond.Weighted>
0.0000

> <Gold.Goldscore.External.HBond.Weighted>
0.0000

> <Gold.Goldscore.Internal.Correction.Weighted>
-0.7693

> <Gold.Rescore>
     Score     S(PLP)   S(hbond)     S(cho)   S(metal)  DE(clash)   DE(tors)     intcor
     23.45     -25.18       0.00       0.00       0.00       0.00       0.86       ----

> <Gold.PLP.Fitness>
23.4548

> <Gold.PLP.PLP>
-25.1831

> <Gold.PLP.part.hbond>
-1.6741

> <Gold.PLP.part.metal>
0.0000

> <Gold.PLP.part.buried>
-0.2926

> <Gold.PLP.part.nonpolar>
-24.3337

> <Gold.PLP.part.repulsive>
0.5839

> <Gold.PLP.ligand.clash>
0.0000

> <Gold.PLP.ligand.torsion>
0.8642

> <Gold.PLP.Chemscore.Hbond>
0.0000

> <Gold.PLP.Chemscore.CHOScore>
0.0000

> <Gold.PLP.Chemscore.Metal>
0.0000

> <Gold.PLP.Chemscore.Internal.Correction>
   9.000000E+99

