#       Name:                CT1002167954
#       Creating user name   hitesit
#       Creation time:       Sun Apr 16 22:51:48 2023


#       File generated by GOLD software.
#

@<TRIPOS>MOLECULE
CT1002167954|ligand_prepared|mol2|1|dock1
    29    30     1
SMALL
NO_CHARGES


@<TRIPOS>ATOM
      1 C1         -13.5080   4.9894  16.3776 C.3            1 RES1               0.0000
      2 C2         -13.1823   3.8050  17.3103 C.ar           1 RES1               0.0000
      3 C3         -14.4918   4.4588  15.3389 C.2            1 RES1               0.0000
      4 C4         -14.0760   6.0895  17.2675 C.2            1 RES1               0.0000
      5 C5         -12.2750   5.5609  15.6395 C.3            1 RES1               0.0000
      6 C6         -12.0856   2.9859  17.0590 C.ar           1 RES1               0.0000
      7 C7         -13.9662   3.5211  18.4254 C.ar           1 RES1               0.0000
      8 N8         -15.7960   4.8414  15.4505 N.am           1 RES1               0.0000
      9 O9         -14.1360   3.6850  14.4586 O.2            1 RES1               0.0000
     10 N10        -15.3872   6.4460  17.0900 N.am           1 RES1               0.0000
     11 O11        -13.4046   6.6393  18.1319 O.2            1 RES1               0.0000
     12 C12        -12.5585   6.8446  14.8753 C.3            1 RES1               0.0000
     13 C13        -11.7819   1.9233  17.8938 C.ar           1 RES1               0.0000
     14 C14        -13.6608   2.4578  19.2588 C.ar           1 RES1               0.0000
     15 C15        -16.2815   5.8505  16.2428 C.2            1 RES1               0.0000
     16 C16        -12.5689   1.6588  18.9944 C.ar           1 RES1               0.0000
     17 O17        -17.4591   6.1915  16.1787 O.2            1 RES1               0.0000
     18 H18        -11.4827   5.7543  16.3731 H              1 RES1               0.0000
     19 H19        -11.9035   4.8058  14.9358 H              1 RES1               0.0000
     20 H20        -11.4562   3.1772  16.1962 H              1 RES1               0.0000
     21 H21        -14.8308   4.1356  18.6524 H              1 RES1               0.0000
     22 H22        -16.4730   4.3297  14.8936 H              1 RES1               0.0000
     23 H23        -15.7280   7.2278  17.6403 H              1 RES1               0.0000
     24 H24        -11.6605   7.2026  14.3761 H              1 RES1               0.0000
     25 H25        -13.3244   6.6826  14.1198 H              1 RES1               0.0000
     26 H26        -12.9062   7.6254  15.5485 H              1 RES1               0.0000
     27 H27        -10.9222   1.2967  17.6805 H              1 RES1               0.0000
     28 H28        -14.2833   2.2530  20.1235 H              1 RES1               0.0000
     29 H29        -12.3305   0.8266  19.6484 H              1 RES1               0.0000
@<TRIPOS>BOND
    1    1    2 1     
    2    1    3 1     
    3    1    4 1     
    4    1    5 1     
    5    2    6 ar    
    6    2    7 ar    
    7    3    8 1     
    8    3    9 2     
    9    4   10 1     
   10    4   11 2     
   11    5   12 1     
   12    5   18 1     
   13    5   19 1     
   14    6   13 ar    
   15    6   20 1     
   16    7   14 ar    
   17    7   21 1     
   18    8   15 1     
   19    8   22 1     
   20   10   15 1     
   21   10   23 1     
   22   12   24 1     
   23   12   25 1     
   24   12   26 1     
   25   13   16 ar    
   26   13   27 1     
   27   14   16 ar    
   28   14   28 1     
   29   15   17 2     
   30   16   29 1     
@<TRIPOS>SUBSTRUCTURE
      1 RES1           1
@<TRIPOS>SET
DONOR_HYDROGENS      STATIC     ATOMS    <user>   **** ""
2 22 23
ATOM$RED        STATIC     ATOMS    COLORGROUP SYSTEM
2 22 23
@<TRIPOS>COMMENT
> <Gold.Version>
2022.3.0

> <Gold.Id.Protein>
unknown|3mvj_clean|pdb

> <Gold.Protein.RotatedTorsions>
[ 11826 11799 11798 11795 ] final   -4.67 input   60.01 | X-H torsion
[ 11911 11856 11855 11854 ] final  177.53 input   60.02 | X-H torsion
[ 10977 10959 10958 10956 ] final   48.26 input   60.00 | X-H torsion
[ 10969 10948 10949 10950 ] final  160.67 input   32.02 | X-H torsion
[ 10737 10719 10718 10716 ] final -130.48 input   60.01 | X-H torsion
[ 12076 12056 12057 12058 ] final -116.25 input   63.02 | X-H torsion
[ 10918 10911 10912 10913 ] final  170.87 input  -92.90 | X-H torsion
[ 6164 6140 6141 6142 ] final  130.41 input   39.58 | X-H torsion
[ 6112 6105 6106 6107 ] final -162.63 input  -69.34 | X-H torsion
[ 5955 5918 5919 5920 ] final  113.30 input  125.26 | X-H torsion
[ 6027 5990 5991 5992 ] final -129.97 input  110.40 | X-H torsion
[ 6075 6056 6057 6058 ] final  -97.73 input  107.04 | X-H torsion
[ 11686 11631 11630 11629 ] final  -78.46 input   60.02 | X-H torsion
[ 11211 11201 11202 11203 ] final -121.10 input   18.84 | X-H torsion
[ 11249 11237 11238 11239 ] final   95.01 input  111.29 | X-H torsion
[ 11173 11153 11154 11155 ] final   31.04 input   30.50 | X-H torsion
[ 11292 11275 11276 11277 ] final  -29.10 input   58.53 | X-H torsion
[ 9451 9430 9431 9432 ] final   -5.63 input  110.06 | X-H torsion
[ 11493 11474 11475 11476 ] final  171.59 input  115.95 | X-H torsion
[ 11385 11366 11367 11368 ] final   84.85 input  117.79 | X-H torsion
[ 11568 11550 11549 11547 ] final   67.65 input   59.97 | X-H torsion
[ 9369 9348 9346 9343 ] final -124.02 input   60.02 | X-H torsion
[ 9511 9481 9482 9483 ] final  -63.17 input   75.78 | X-H torsion
[ 15475 15466 15465 15463 ] final   65.72 input   60.00 | X-H torsion
[ 7755 7731 7730 7729 ] final   35.67 input   60.02 | X-H torsion
[ 7846 7831 7832 7833 ] final  132.34 input  113.97 | X-H torsion
[ 5737 5717 5718 5719 ] final -156.75 input  137.93 | X-H torsion
[ 5778 5767 5768 5769 ] final  153.50 input  116.46 | X-H torsion
[ 1839 1818 1819 1820 ] final   59.67 input   43.70 | X-H torsion
[ 5782 5772 5771 5768 ] final  116.66 input   59.97 | X-H torsion
[ 15411 15403 15404 15405 ] final  -38.08 input  102.24 | X-H torsion
[ 1801 1791 1792 1793 ] final   97.98 input  -10.55 | X-H torsion
[ 5632 5617 5618 5619 ] final -167.99 input   93.34 | X-H torsion
[ 7884 7874 7875 7876 ] final -144.09 input   68.03 | X-H torsion
[ 1845 1824 1822 1819 ] final  -52.34 input   60.02 | X-H torsion
[ 1864 1854 1855 1856 ] final -123.77 input   57.50 | X-H torsion
[ 9363 9342 9343 9344 ] final  -35.86 input   55.58 | X-H torsion
[ 9519 9492 9491 9489 ] final  102.15 input   60.02 | X-H torsion
[ 7745 7723 7724 7725 ] final   -8.72 input   17.81 | X-H torsion
[ 1896 1884 1883 1880 ] final   27.80 input   60.01 | X-H torsion
[ 9325 9315 9316 9317 ] final  124.11 input  -36.21 | X-H torsion
[ 1892 1879 1880 1881 ] final   78.50 input   98.21 | X-H torsion
[ 9302 9286 9287 9288 ] final  105.83 input   37.00 | X-H torsion
[ 9263 9233 9234 9235 ] final   -7.64 input   95.32 | X-H torsion
[ 3370 3362 3363 3364 ] final   68.26 input   97.92 | X-H torsion
[ 1947 1922 1923 1924 ] final   26.97 input  104.43 | X-H torsion
[ 12159 12148 12149 12150 ] final  104.60 input  116.04 | X-H torsion
[ 11673 11649 11648 11647 ] final -166.57 input   59.99 | X-H torsion
[ 12008 11984 11985 11986 ] final   74.92 input   61.04 | X-H torsion
[ 11113 11093 11094 11095 ] final   81.50 input   39.50 | X-H torsion
[ 7924 7916 7917 7918 ] final -137.44 input   66.66 | X-H torsion
[ 8650 8630 8631 8632 ] final   78.35 input   75.31 | X-H torsion
[ 9566 9536 9537 9538 ] final  164.30 input  103.50 | X-H torsion
[ 16472 10886 10885 10884 ] final  161.44 input    0.00 | X-H torsion
[ 16475 11004 11003 11002 ] final  164.30 input    0.00 | X-H torsion
[ 16477 10914 10913 10912 ] final -136.67 input    0.00 | X-H torsion
[ 16479 10951 10950 10949 ] final   73.08 input   -0.00 | X-H torsion
[ 16484 11987 11986 11985 ] final -128.31 input    0.00 | X-H torsion
[ 16486 12059 12058 12057 ] final   30.78 input   -0.00 | X-H torsion
[ 16490 11046 11045 11044 ] final -149.45 input    0.00 | X-H torsion
[ 16500 6108 6107 6106 ] final   24.87 input    0.00 | X-H torsion
[ 16503 5921 5920 5919 ] final   64.43 input   -0.00 | X-H torsion
[ 16506 6059 6058 6057 ] final   78.38 input    0.00 | X-H torsion
[ 16510 5858 5857 5856 ] final  140.24 input    0.00 | X-H torsion
[ 16518 5993 5992 5991 ] final -157.95 input   -0.00 | X-H torsion
[ 16523 11156 11155 11154 ] final  164.01 input    0.00 | X-H torsion
[ 16528 11204 11203 11202 ] final -162.14 input    0.00 | X-H torsion
[ 16540 11096 11095 11094 ] final  -62.33 input   -0.00 | X-H torsion
[ 16544 10768 10767 10766 ] final -174.91 input   -0.00 | X-H torsion
[ 16552 11240 11239 11238 ] final -146.59 input    0.00 | X-H torsion
[ 16558 11278 11277 11276 ] final   14.88 input   -0.00 | X-H torsion
[ 16562 11325 11324 11323 ] final  -24.44 input   -0.00 | X-H torsion
[ 16566 9387 9386 9385 ] final   86.63 input   -0.00 | X-H torsion
[ 16570 9345 9344 9343 ] final  135.89 input    0.00 | X-H torsion
[ 16579 5720 5719 5718 ] final  102.11 input    0.00 | X-H torsion
[ 16592 1821 1820 1819 ] final  -47.03 input    0.00 | X-H torsion
[ 16594 7834 7833 7832 ] final   20.54 input    0.00 | X-H torsion
[ 16600 1745 1744 1743 ] final  110.61 input    0.00 | X-H torsion
[ 16608 5620 5619 5618 ] final  126.27 input   -0.00 | X-H torsion
[ 16610 7788 7787 7786 ] final   14.97 input   -0.00 | X-H torsion
[ 16613 1794 1793 1792 ] final -172.10 input   -0.00 | X-H torsion
[ 16622 9318 9317 9316 ] final  -86.21 input   -0.00 | X-H torsion
[ 16627 9433 9432 9431 ] final -145.41 input    0.00 | X-H torsion
[ 16631 7667 7666 7665 ] final   50.12 input   -0.00 | X-H torsion
[ 16635 7726 7725 7724 ] final  -32.76 input    0.00 | X-H torsion
[ 16637 10539 10538 10537 ] final   29.06 input   -0.00 | X-H torsion
[ 16643 1857 1856 1855 ] final  142.77 input    0.00 | X-H torsion
[ 16645 7565 7564 7563 ] final  -44.67 input    0.00 | X-H torsion
[ 16647 9289 9288 9287 ] final -134.12 input    0.00 | X-H torsion
[ 16649 9236 9235 9234 ] final  133.25 input    0.00 | X-H torsion
[ 16655 3365 3364 3363 ] final   68.53 input    0.00 | X-H torsion

> <Gold.Protein.ActiveResidues>
 LEU49   GLY50   THR51   GLY52   SER53   PHE54   VAL57   LEU82   LYS83   GLN84  
 HIS87   GLU127  PHE129  SER130  LEU132  ARG133  ARG134  ILE135  GLY136  ARG137 
 ARG165  ASP166  LEU167  LYS168  PRO169  GLU170  ASN171  LEU172  LEU173  ASP184 
 GLY186  PHE187  TPO197  LEU198  CYS199  GLY200  THR201  PRO202  GLU203  TYR204 
 LEU205  ILE209  ILE210  VAL226  LEU227  TYR229  GLU230  ALA233  GLY234  TYR235 
 PRO236  PRO237  PHE238  PHE239  ALA240  ASP241  GLN242  PRO243  ILE244  GLN245 
 ILE246  TYR247  GLU248  LYS249  ILE250  VAL251  SER252  LYS254  ARG256  PHE257 
 PRO258  SER259  PHE327  ASP328  TYR330 

> <Gold.Protein.RotatedAtoms>
    0.6369  -14.7970   20.5646 H   0  0  0  0  0  0  0  0  0  0  0  0  # atno 1801 bound_to 1791
   -1.1248  -13.2661   24.5724 H   0  0  0  0  0  0  0  0  0  0  0  0  # atno 1839 bound_to 1818
   -1.0622  -13.6877   28.0501 H   0  0  0  0  0  0  0  0  0  0  0  0  # atno 1845 bound_to 1824
   -2.6037  -15.1705   26.7266 H   0  0  0  0  0  0  0  0  0  0  0  0  # atno 1864 bound_to 1854
   -5.3802  -17.2237   29.8644 H   0  0  0  0  0  0  0  0  0  0  0  0  # atno 1892 bound_to 1879
   -5.6812  -15.6871   31.4714 H   0  0  0  0  0  0  0  0  0  0  0  0  # atno 1896 bound_to 1884
   -3.9408  -19.0572   29.9725 H   0  0  0  0  0  0  0  0  0  0  0  0  # atno 1947 bound_to 1922
   -7.5706  -24.7445   35.5450 H   0  0  0  0  0  0  0  0  0  0  0  0  # atno 3370 bound_to 3362
   -3.9836  -10.9608   13.6755 H   0  0  0  0  0  0  0  0  0  0  0  0  # atno 5632 bound_to 5617
   -9.6982   -8.0903   14.7043 H   0  0  0  0  0  0  0  0  0  0  0  0  # atno 5737 bound_to 5717
   -6.3316   -6.4770   15.9484 H   0  0  0  0  0  0  0  0  0  0  0  0  # atno 5778 bound_to 5767
   -3.3332   -5.7313   13.5138 H   0  0  0  0  0  0  0  0  0  0  0  0  # atno 5782 bound_to 5772
   -8.6409   -2.4185   15.0357 H   0  0  0  0  0  0  0  0  0  0  0  0  # atno 5955 bound_to 5918
   -7.0519    0.4103   15.4351 H   0  0  0  0  0  0  0  0  0  0  0  0  # atno 6027 bound_to 5990
   -6.9219    1.7705   12.1464 H   0  0  0  0  0  0  0  0  0  0  0  0  # atno 6075 bound_to 6056
   -9.3261    2.6526   12.7951 H   0  0  0  0  0  0  0  0  0  0  0  0  # atno 6112 bound_to 6105
  -13.2771    3.0369   12.0232 H   0  0  0  0  0  0  0  0  0  0  0  0  # atno 6164 bound_to 6140
  -14.7289  -13.4109   17.3260 H   0  0  0  0  0  0  0  0  0  0  0  0  # atno 7745 bound_to 7723
  -12.8334  -12.0472   24.3498 H   0  0  0  0  0  0  0  0  0  0  0  0  # atno 7755 bound_to 7731
  -11.8356  -13.3611   24.5094 H   0  0  0  0  0  0  0  0  0  0  0  0  # atno 7756 bound_to 7731
  -11.2212  -11.9119   23.9880 H   0  0  0  0  0  0  0  0  0  0  0  0  # atno 7757 bound_to 7731
  -11.1792   -9.7779   18.3720 H   0  0  0  0  0  0  0  0  0  0  0  0  # atno 7846 bound_to 7831
   -9.6090  -12.5890   18.1846 H   0  0  0  0  0  0  0  0  0  0  0  0  # atno 7884 bound_to 7874
  -10.5647  -14.3693   15.5058 H   0  0  0  0  0  0  0  0  0  0  0  0  # atno 7924 bound_to 7916
  -13.5842  -21.8685   22.7484 H   0  0  0  0  0  0  0  0  0  0  0  0  # atno 8650 bound_to 8630
  -20.6979  -21.2446   30.8279 H   0  0  0  0  0  0  0  0  0  0  0  0  # atno 9263 bound_to 9233
  -20.1035  -19.7440   29.1032 H   0  0  0  0  0  0  0  0  0  0  0  0  # atno 9302 bound_to 9286
  -18.4879  -17.1140   27.5474 H   0  0  0  0  0  0  0  0  0  0  0  0  # atno 9325 bound_to 9315
  -17.9193  -13.7694   26.1743 H   0  0  0  0  0  0  0  0  0  0  0  0  # atno 9363 bound_to 9342
  -13.6695  -12.7615   24.5933 H   0  0  0  0  0  0  0  0  0  0  0  0  # atno 9369 bound_to 9348
  -18.9320   -9.2737   25.7406 H   0  0  0  0  0  0  0  0  0  0  0  0  # atno 9451 bound_to 9430
  -20.3836   -8.9407   24.1006 H   0  0  0  0  0  0  0  0  0  0  0  0  # atno 9511 bound_to 9481
  -16.3308   -8.1729   17.6287 H   0  0  0  0  0  0  0  0  0  0  0  0  # atno 9519 bound_to 9492
  -20.7074  -11.2860   24.8436 H   0  0  0  0  0  0  0  0  0  0  0  0  # atno 9566 bound_to 9536
  -24.6312    1.0493   18.5864 H   0  0  0  0  0  0  0  0  0  0  0  0  # atno 10737 bound_to 10719
  -17.0582    0.9819   13.3900 H   0  0  0  0  0  0  0  0  0  0  0  0  # atno 10918 bound_to 10911
  -16.3690    1.4577   16.8304 H   0  0  0  0  0  0  0  0  0  0  0  0  # atno 10969 bound_to 10948
  -22.3195    5.0394   18.2392 H   0  0  0  0  0  0  0  0  0  0  0  0  # atno 10977 bound_to 10959
  -22.6025   -3.3060   22.2827 H   0  0  0  0  0  0  0  0  0  0  0  0  # atno 11113 bound_to 11093
  -21.6807   -0.5600   25.4920 H   0  0  0  0  0  0  0  0  0  0  0  0  # atno 11173 bound_to 11153
  -19.2070   -0.1259   27.3851 H   0  0  0  0  0  0  0  0  0  0  0  0  # atno 11211 bound_to 11201
  -18.3077    1.0254   31.8257 H   0  0  0  0  0  0  0  0  0  0  0  0  # atno 11249 bound_to 11237
  -17.4062   -1.4131   32.0815 H   0  0  0  0  0  0  0  0  0  0  0  0  # atno 11292 bound_to 11275
  -19.5888   -5.2650   34.6947 H   0  0  0  0  0  0  0  0  0  0  0  0  # atno 11385 bound_to 11366
  -21.2753   -3.0674   31.2815 H   0  0  0  0  0  0  0  0  0  0  0  0  # atno 11493 bound_to 11474
  -18.6477   -9.8663   31.5096 H   0  0  0  0  0  0  0  0  0  0  0  0  # atno 11568 bound_to 11550
  -24.5458    3.0084   27.5380 H   0  0  0  0  0  0  0  0  0  0  0  0  # atno 11673 bound_to 11649
  -25.5398    2.1009   28.5064 H   0  0  0  0  0  0  0  0  0  0  0  0  # atno 11674 bound_to 11649
  -24.0364    2.5440   29.0461 H   0  0  0  0  0  0  0  0  0  0  0  0  # atno 11675 bound_to 11649
   -8.4842    8.1497   25.3992 H   0  0  0  0  0  0  0  0  0  0  0  0  # atno 11686 bound_to 11631
   -7.9897    9.3211   26.4619 H   0  0  0  0  0  0  0  0  0  0  0  0  # atno 11687 bound_to 11631
   -9.3667    8.4525   26.7696 H   0  0  0  0  0  0  0  0  0  0  0  0  # atno 11688 bound_to 11631
  -12.6993   16.8408   22.4082 H   0  0  0  0  0  0  0  0  0  0  0  0  # atno 11826 bound_to 11799
  -18.1346   16.3837   24.4199 H   0  0  0  0  0  0  0  0  0  0  0  0  # atno 11911 bound_to 11856
  -16.7994   15.4695   24.0598 H   0  0  0  0  0  0  0  0  0  0  0  0  # atno 11912 bound_to 11856
  -17.8060   15.0151   25.2962 H   0  0  0  0  0  0  0  0  0  0  0  0  # atno 11913 bound_to 11856
  -27.7846    1.0513   20.2267 H   0  0  0  0  0  0  0  0  0  0  0  0  # atno 12008 bound_to 11984
  -27.4757    2.6390   17.4943 H   0  0  0  0  0  0  0  0  0  0  0  0  # atno 12076 bound_to 12056
  -24.4089    7.8696   13.1147 H   0  0  0  0  0  0  0  0  0  0  0  0  # atno 12159 bound_to 12148
    2.1013   -8.2867   17.2943 H   0  0  0  0  0  0  0  0  0  0  0  0  # atno 15411 bound_to 15403
   -1.7654  -10.9271   21.2448 H   0  0  0  0  0  0  0  0  0  0  0  0  # atno 15475 bound_to 15466
  -12.5866   15.2513   22.7378 LP  0  0  0  0  0  0  0  0  0  0  0  0  # atno 16466 bound_to 11799
  -13.6103   16.1946   23.5916 LP  0  0  0  0  0  0  0  0  0  0  0  0  # atno 16467 bound_to 11799
  -22.2778    4.3029   16.7886 LP  0  0  0  0  0  0  0  0  0  0  0  0  # atno 16468 bound_to 10959
  -21.3964    5.6530   17.0476 LP  0  0  0  0  0  0  0  0  0  0  0  0  # atno 16469 bound_to 10959
  -16.6946    3.2074   14.9613 LP  0  0  0  0  0  0  0  0  0  0  0  0  # atno 16472 bound_to 10886
  -18.0108    3.7298   13.9639 LP  0  0  0  0  0  0  0  0  0  0  0  0  # atno 16473 bound_to 10886
  -17.2797    0.0408   16.3449 LP  0  0  0  0  0  0  0  0  0  0  0  0  # atno 16474 bound_to 10948
  -21.4934   -0.0951   21.0219 LP  0  0  0  0  0  0  0  0  0  0  0  0  # atno 16475 bound_to 11004
  -19.8030   -0.3320   21.3155 LP  0  0  0  0  0  0  0  0  0  0  0  0  # atno 16476 bound_to 11004
  -14.4557    0.4823   17.9756 LP  0  0  0  0  0  0  0  0  0  0  0  0  # atno 16477 bound_to 10914
  -14.0553    1.8330   16.9680 LP  0  0  0  0  0  0  0  0  0  0  0  0  # atno 16478 bound_to 10914
  -18.9963   -1.1033   16.8505 LP  0  0  0  0  0  0  0  0  0  0  0  0  # atno 16479 bound_to 10951
  -20.0871   -0.3017   17.9311 LP  0  0  0  0  0  0  0  0  0  0  0  0  # atno 16480 bound_to 10951
  -24.1471    1.8154   17.2349 LP  0  0  0  0  0  0  0  0  0  0  0  0  # atno 16482 bound_to 10719
  -23.0720    1.4831   18.4183 LP  0  0  0  0  0  0  0  0  0  0  0  0  # atno 16483 bound_to 10719
  -25.5097    2.1632   17.6194 LP  0  0  0  0  0  0  0  0  0  0  0  0  # atno 16484 bound_to 11987
  -26.4649    0.8413   18.2028 LP  0  0  0  0  0  0  0  0  0  0  0  0  # atno 16485 bound_to 11987
  -27.5607    5.4636   15.9317 LP  0  0  0  0  0  0  0  0  0  0  0  0  # atno 16486 bound_to 12059
  -26.6776    6.1475   14.6079 LP  0  0  0  0  0  0  0  0  0  0  0  0  # atno 16487 bound_to 12059
  -24.2317   -0.4007   23.1702 LP  0  0  0  0  0  0  0  0  0  0  0  0  # atno 16490 bound_to 11046
  -25.1534   -0.7152   21.7379 LP  0  0  0  0  0  0  0  0  0  0  0  0  # atno 16491 bound_to 11046
  -28.5317    3.7421   16.6463 LP  0  0  0  0  0  0  0  0  0  0  0  0  # atno 16492 bound_to 12056
  -17.7627    0.5303   14.9278 LP  0  0  0  0  0  0  0  0  0  0  0  0  # atno 16493 bound_to 10911
  -12.8737    1.3644   14.5606 LP  0  0  0  0  0  0  0  0  0  0  0  0  # atno 16500 bound_to 6108
  -13.5042    0.4016   13.2662 LP  0  0  0  0  0  0  0  0  0  0  0  0  # atno 16501 bound_to 6108
  -12.1528    1.8481   11.4081 LP  0  0  0  0  0  0  0  0  0  0  0  0  # atno 16502 bound_to 6140
   -8.3601    2.2594   16.2935 LP  0  0  0  0  0  0  0  0  0  0  0  0  # atno 16503 bound_to 5921
   -8.7610    2.3614   14.6116 LP  0  0  0  0  0  0  0  0  0  0  0  0  # atno 16504 bound_to 5921
  -10.3341    1.6853   11.7400 LP  0  0  0  0  0  0  0  0  0  0  0  0  # atno 16505 bound_to 6105
  -10.4806    4.1899   10.2783 LP  0  0  0  0  0  0  0  0  0  0  0  0  # atno 16506 bound_to 6059
   -9.5949    4.8454   11.6147 LP  0  0  0  0  0  0  0  0  0  0  0  0  # atno 16507 bound_to 6059
  -10.4662    0.5402   14.2391 LP  0  0  0  0  0  0  0  0  0  0  0  0  # atno 16510 bound_to 5858
  -10.0495    0.2324   12.5863 LP  0  0  0  0  0  0  0  0  0  0  0  0  # atno 16511 bound_to 5858
   -9.7395   -1.3368   14.2157 LP  0  0  0  0  0  0  0  0  0  0  0  0  # atno 16516 bound_to 5918
   -7.5804   -0.3110   13.9268 LP  0  0  0  0  0  0  0  0  0  0  0  0  # atno 16517 bound_to 5990
   -7.4706    3.8542   11.9486 LP  0  0  0  0  0  0  0  0  0  0  0  0  # atno 16518 bound_to 5993
   -5.9538    3.7219   12.7742 LP  0  0  0  0  0  0  0  0  0  0  0  0  # atno 16519 bound_to 5993
   -8.1497    0.5369   12.1058 LP  0  0  0  0  0  0  0  0  0  0  0  0  # atno 16520 bound_to 6056
  -21.0416    0.9473   28.1708 LP  0  0  0  0  0  0  0  0  0  0  0  0  # atno 16523 bound_to 11156
  -21.2443    0.7848   26.4584 LP  0  0  0  0  0  0  0  0  0  0  0  0  # atno 16524 bound_to 11156
  -19.0382   -1.5675   28.3686 LP  0  0  0  0  0  0  0  0  0  0  0  0  # atno 16525 bound_to 11201
  -16.0610   -1.0446   30.2559 LP  0  0  0  0  0  0  0  0  0  0  0  0  # atno 16528 bound_to 11204
  -16.8229   -0.8697   28.7103 LP  0  0  0  0  0  0  0  0  0  0  0  0  # atno 16529 bound_to 11204
  -17.5306    0.3959   30.3923 LP  0  0  0  0  0  0  0  0  0  0  0  0  # atno 16530 bound_to 11237
  -21.3252   -2.1939   24.9738 LP  0  0  0  0  0  0  0  0  0  0  0  0  # atno 16533 bound_to 11153
  -21.0522   -4.3232   25.0705 LP  0  0  0  0  0  0  0  0  0  0  0  0  # atno 16540 bound_to 11096
  -19.8748   -3.4060   24.1916 LP  0  0  0  0  0  0  0  0  0  0  0  0  # atno 16541 bound_to 11096
  -16.2897   -1.8481   13.6132 LP  0  0  0  0  0  0  0  0  0  0  0  0  # atno 16544 bound_to 10768
  -16.7133   -1.5228   15.2608 LP  0  0  0  0  0  0  0  0  0  0  0  0  # atno 16545 bound_to 10768
  -15.0477   -2.4789   32.4351 LP  0  0  0  0  0  0  0  0  0  0  0  0  # atno 16552 bound_to 11240
  -14.2007   -0.9875   32.6762 LP  0  0  0  0  0  0  0  0  0  0  0  0  # atno 16553 bound_to 11240
  -17.1026   -0.6350   33.6167 LP  0  0  0  0  0  0  0  0  0  0  0  0  # atno 16554 bound_to 11275
  -19.3296   -2.5311   32.3116 LP  0  0  0  0  0  0  0  0  0  0  0  0  # atno 16558 bound_to 11278
  -19.8062   -4.1944   32.2330 LP  0  0  0  0  0  0  0  0  0  0  0  0  # atno 16559 bound_to 11278
  -18.0857   -7.8797   26.3741 LP  0  0  0  0  0  0  0  0  0  0  0  0  # atno 16561 bound_to 9430
  -20.6494   -5.9875   31.1030 LP  0  0  0  0  0  0  0  0  0  0  0  0  # atno 16562 bound_to 11325
  -21.7494   -6.5603   32.3121 LP  0  0  0  0  0  0  0  0  0  0  0  0  # atno 16563 bound_to 11325
  -22.7994   -3.8060   31.7311 LP  0  0  0  0  0  0  0  0  0  0  0  0  # atno 16564 bound_to 11474
  -19.9097   -6.4670   33.4790 LP  0  0  0  0  0  0  0  0  0  0  0  0  # atno 16565 bound_to 11366
  -21.0379   -8.0892   27.3549 LP  0  0  0  0  0  0  0  0  0  0  0  0  # atno 16566 bound_to 9387
  -21.2375   -9.4033   26.2444 LP  0  0  0  0  0  0  0  0  0  0  0  0  # atno 16567 bound_to 9387
  -19.3631  -11.2652   31.0860 LP  0  0  0  0  0  0  0  0  0  0  0  0  # atno 16568 bound_to 11550
  -19.1594  -10.8938   32.6631 LP  0  0  0  0  0  0  0  0  0  0  0  0  # atno 16569 bound_to 11550
  -19.4573  -11.3295   25.7726 LP  0  0  0  0  0  0  0  0  0  0  0  0  # atno 16570 bound_to 9345
  -18.4116  -11.4896   24.4012 LP  0  0  0  0  0  0  0  0  0  0  0  0  # atno 16571 bound_to 9345
  -14.7803  -13.5079   23.6679 LP  0  0  0  0  0  0  0  0  0  0  0  0  # atno 16572 bound_to 9348
  -14.7487  -13.7673   25.2798 LP  0  0  0  0  0  0  0  0  0  0  0  0  # atno 16573 bound_to 9348
  -18.8013   -9.5962   23.7437 LP  0  0  0  0  0  0  0  0  0  0  0  0  # atno 16574 bound_to 9481
   -8.1399   -3.6493   16.6203 LP  0  0  0  0  0  0  0  0  0  0  0  0  # atno 16579 bound_to 5720
   -8.7996   -3.7825   15.0244 LP  0  0  0  0  0  0  0  0  0  0  0  0  # atno 16580 bound_to 5720
   -1.3174   -9.3888   20.9611 LP  0  0  0  0  0  0  0  0  0  0  0  0  # atno 16587 bound_to 15466
   -2.1268   -9.7678   22.3278 LP  0  0  0  0  0  0  0  0  0  0  0  0  # atno 16588 bound_to 15466
  -10.8181  -10.3971   16.7695 LP  0  0  0  0  0  0  0  0  0  0  0  0  # atno 16591 bound_to 7831
   -2.6298  -13.0229   26.7062 LP  0  0  0  0  0  0  0  0  0  0  0  0  # atno 16592 bound_to 1821
   -4.0468  -13.9334   26.3024 LP  0  0  0  0  0  0  0  0  0  0  0  0  # atno 16593 bound_to 1821
   -7.3329  -12.4472   18.5668 LP  0  0  0  0  0  0  0  0  0  0  0  0  # atno 16594 bound_to 7834
   -7.8061  -13.6598   17.4242 LP  0  0  0  0  0  0  0  0  0  0  0  0  # atno 16595 bound_to 7834
   -8.1013   -7.6007   14.1638 LP  0  0  0  0  0  0  0  0  0  0  0  0  # atno 16596 bound_to 5717
   -7.5230   -5.5048   15.1124 LP  0  0  0  0  0  0  0  0  0  0  0  0  # atno 16597 bound_to 5767
   -1.0567  -13.6113   19.3256 LP  0  0  0  0  0  0  0  0  0  0  0  0  # atno 16600 bound_to 1745
   -0.1390  -12.1426   19.3019 LP  0  0  0  0  0  0  0  0  0  0  0  0  # atno 16601 bound_to 1745
   -0.7588  -14.7379   23.7006 LP  0  0  0  0  0  0  0  0  0  0  0  0  # atno 16602 bound_to 1818
   -4.8825   -6.1978   13.6867 LP  0  0  0  0  0  0  0  0  0  0  0  0  # atno 16603 bound_to 5772
   -3.7000   -6.9595   14.5163 LP  0  0  0  0  0  0  0  0  0  0  0  0  # atno 16604 bound_to 5772
    0.4432   -8.0567   17.7976 LP  0  0  0  0  0  0  0  0  0  0  0  0  # atno 16605 bound_to 15403
    1.5059  -13.6026   21.5045 LP  0  0  0  0  0  0  0  0  0  0  0  0  # atno 16606 bound_to 1791
   -4.2680   -9.3152   13.1472 LP  0  0  0  0  0  0  0  0  0  0  0  0  # atno 16607 bound_to 5617
   -6.2630   -7.5583   12.4127 LP  0  0  0  0  0  0  0  0  0  0  0  0  # atno 16608 bound_to 5620
   -5.8086   -7.6077   14.0833 LP  0  0  0  0  0  0  0  0  0  0  0  0  # atno 16609 bound_to 5620
  -10.1525   -9.8990   14.6633 LP  0  0  0  0  0  0  0  0  0  0  0  0  # atno 16610 bound_to 7788
   -9.1802  -10.8062   15.7730 LP  0  0  0  0  0  0  0  0  0  0  0  0  # atno 16611 bound_to 7788
  -10.8447  -12.4709   16.9594 LP  0  0  0  0  0  0  0  0  0  0  0  0  # atno 16612 bound_to 7874
    0.2008  -16.4418   24.2737 LP  0  0  0  0  0  0  0  0  0  0  0  0  # atno 16613 bound_to 1794
    0.7569  -16.1221   22.6648 LP  0  0  0  0  0  0  0  0  0  0  0  0  # atno 16614 bound_to 1794
    0.3492  -14.1162   28.7374 LP  0  0  0  0  0  0  0  0  0  0  0  0  # atno 16615 bound_to 1824
   -0.8308  -15.2256   28.5290 LP  0  0  0  0  0  0  0  0  0  0  0  0  # atno 16616 bound_to 1824
   -2.2294  -16.8718   26.9404 LP  0  0  0  0  0  0  0  0  0  0  0  0  # atno 16617 bound_to 1854
  -16.1607  -14.5029   28.2404 LP  0  0  0  0  0  0  0  0  0  0  0  0  # atno 16622 bound_to 9318
  -14.9693  -14.8672   27.0372 LP  0  0  0  0  0  0  0  0  0  0  0  0  # atno 16623 bound_to 9318
  -16.6727  -14.2010   25.0250 LP  0  0  0  0  0  0  0  0  0  0  0  0  # atno 16624 bound_to 9342
  -21.9102   -8.3466   22.8691 LP  0  0  0  0  0  0  0  0  0  0  0  0  # atno 16627 bound_to 9433
  -21.0378   -6.8537   22.7683 LP  0  0  0  0  0  0  0  0  0  0  0  0  # atno 16628 bound_to 9433
  -16.6769   -6.9250   18.6143 LP  0  0  0  0  0  0  0  0  0  0  0  0  # atno 16629 bound_to 9492
  -17.7596   -7.4063   17.4906 LP  0  0  0  0  0  0  0  0  0  0  0  0  # atno 16630 bound_to 9492
  -17.3339  -13.3206   20.1699 LP  0  0  0  0  0  0  0  0  0  0  0  0  # atno 16631 bound_to 7667
  -17.2952  -11.8758   19.2154 LP  0  0  0  0  0  0  0  0  0  0  0  0  # atno 16632 bound_to 7667
  -15.7524  -13.3078   18.7468 LP  0  0  0  0  0  0  0  0  0  0  0  0  # atno 16634 bound_to 7723
  -12.9346  -13.0502   17.1401 LP  0  0  0  0  0  0  0  0  0  0  0  0  # atno 16635 bound_to 7726
  -12.6991  -12.0663   15.7342 LP  0  0  0  0  0  0  0  0  0  0  0  0  # atno 16636 bound_to 7726
  -20.6798   -5.6686   17.2674 LP  0  0  0  0  0  0  0  0  0  0  0  0  # atno 16637 bound_to 10539
  -20.1185   -6.0624   15.6769 LP  0  0  0  0  0  0  0  0  0  0  0  0  # atno 16638 bound_to 10539
   -5.3526  -15.3549   33.0299 LP  0  0  0  0  0  0  0  0  0  0  0  0  # atno 16639 bound_to 1884
   -6.8061  -15.9709   32.6121 LP  0  0  0  0  0  0  0  0  0  0  0  0  # atno 16640 bound_to 1884
  -16.7376  -17.1712   27.4913 LP  0  0  0  0  0  0  0  0  0  0  0  0  # atno 16641 bound_to 9315
   -3.7751  -16.5366   29.7614 LP  0  0  0  0  0  0  0  0  0  0  0  0  # atno 16642 bound_to 1879
   -1.9790  -16.6133   30.6146 LP  0  0  0  0  0  0  0  0  0  0  0  0  # atno 16643 bound_to 1857
   -1.6474  -17.0912   28.9831 LP  0  0  0  0  0  0  0  0  0  0  0  0  # atno 16644 bound_to 1857
  -18.7166  -17.3468   23.2657 LP  0  0  0  0  0  0  0  0  0  0  0  0  # atno 16645 bound_to 7565
  -17.0279  -17.7262   23.1994 LP  0  0  0  0  0  0  0  0  0  0  0  0  # atno 16646 bound_to 7565
  -19.7641  -17.4801   25.9076 LP  0  0  0  0  0  0  0  0  0  0  0  0  # atno 16647 bound_to 9289
  -20.5789  -17.4506   27.4357 LP  0  0  0  0  0  0  0  0  0  0  0  0  # atno 16648 bound_to 9289
  -18.0202  -19.5684   31.0358 LP  0  0  0  0  0  0  0  0  0  0  0  0  # atno 16649 bound_to 9236
  -18.8258  -18.5469   32.1792 LP  0  0  0  0  0  0  0  0  0  0  0  0  # atno 16650 bound_to 9236
  -20.1650  -18.1579   29.8355 LP  0  0  0  0  0  0  0  0  0  0  0  0  # atno 16653 bound_to 9286
  -22.2125  -20.9975   31.6677 LP  0  0  0  0  0  0  0  0  0  0  0  0  # atno 16654 bound_to 9233
  -10.8204  -23.2416   33.3247 LP  0  0  0  0  0  0  0  0  0  0  0  0  # atno 16655 bound_to 3365
  -12.0540  -23.3211   34.5379 LP  0  0  0  0  0  0  0  0  0  0  0  0  # atno 16656 bound_to 3365
   -7.9389  -24.1706   37.1544 LP  0  0  0  0  0  0  0  0  0  0  0  0  # atno 16657 bound_to 3362
   -4.9976  -19.5262   31.2898 LP  0  0  0  0  0  0  0  0  0  0  0  0  # atno 16658 bound_to 1922

> <Gold.Score>
     Fitness  S(hb_ext) S(vdw_ext)  S(hb_int)    S(int)      intcor
     32.84       0.48      24.12       0.00      -0.80      -0.80

> <Gold.Goldscore.Fitness>
32.8437

> <Gold.Goldscore.Internal.Vdw>
-1.1348

> <Gold.Goldscore.Internal.Torsion>
-0.4680

> <Gold.Goldscore.External.Vdw>
24.1174

> <Gold.Goldscore.Internal.HBond>
0.0000

> <Gold.Goldscore.External.HBond>
0.4844

> <Gold.Goldscore.Internal.Correction>
-0.8007

> <Gold.Goldscore.Hbonds>
donor molecule, donor type, donor heavy atom, donor atom, acceptor molecule, acceptor atom, score
      P1  H  6140  6164       L1     9  0.03
      L1  H     8    22       P1 10886  0.22

> <Gold.Goldscore.Internal.Vdw.Weighted>
-1.1348

> <Gold.Goldscore.Internal.Torsion.Weighted>
-0.4680

> <Gold.Goldscore.External.Vdw.Weighted>
33.1614

> <Gold.Goldscore.Internal.HBond.Weighted>
0.0000

> <Gold.Goldscore.External.HBond.Weighted>
0.4844

> <Gold.Goldscore.Internal.Correction.Weighted>
-0.8007

> <Gold.Rescore>
     Score     S(PLP)   S(hbond)     S(cho)   S(metal)  DE(clash)   DE(tors)     intcor
     26.07     -27.81       0.00       0.00       0.00       0.00       0.87       ----

> <Gold.PLP.Fitness>
26.0685

> <Gold.PLP.PLP>
-27.8097

> <Gold.PLP.part.hbond>
0.0000

> <Gold.PLP.part.metal>
0.0000

> <Gold.PLP.part.buried>
0.2975

> <Gold.PLP.part.nonpolar>
-29.3372

> <Gold.PLP.part.repulsive>
0.2414

> <Gold.PLP.ligand.clash>
0.0000

> <Gold.PLP.ligand.torsion>
0.8706

> <Gold.PLP.Chemscore.Hbond>
0.0000

> <Gold.PLP.Chemscore.CHOScore>
0.0000

> <Gold.PLP.Chemscore.Metal>
0.0000

> <Gold.Chemscore.Hbonds>
donor molecule, donor type, donor heavy atom, donor atom, acceptor molecule, acceptor atom, score
      L1  H     8    22       P1 10886  1.00

> <Gold.PLP.Chemscore.Internal.Correction>
   9.000000E+99

