#       Name:                CT1002167954
#       Creating user name   hitesit
#       Creation time:       Sun Apr 16 22:52:11 2023


#       File generated by GOLD software.
#

@<TRIPOS>MOLECULE
CT1002167954|ligand_prepared|mol2|1|dock10
    29    30     1
SMALL
NO_CHARGES


@<TRIPOS>ATOM
      1 C1         -12.5539   5.0358  17.3874 C.3            1 RES1               0.0000
      2 C2         -12.2707   5.5584  18.8106 C.ar           1 RES1               0.0000
      3 C3         -11.2002   4.6608  16.7913 C.2            1 RES1               0.0000
      4 C4         -13.5105   3.8594  17.5474 C.2            1 RES1               0.0000
      5 C5         -13.2267   6.0763  16.4621 C.3            1 RES1               0.0000
      6 C6         -12.1361   6.9225  19.0508 C.ar           1 RES1               0.0000
      7 C7         -12.1443   4.6903  19.8918 C.ar           1 RES1               0.0000
      8 N8         -10.9061   3.3341  16.6763 N.am           1 RES1               0.0000
      9 O9         -10.3871   5.5164  16.4639 O.2            1 RES1               0.0000
     10 N10        -13.0585   2.6127  17.2021 N.am           1 RES1               0.0000
     11 O11        -14.6461   3.9985  17.9850 O.2            1 RES1               0.0000
     12 C12        -13.7538   5.4904  15.1617 C.3            1 RES1               0.0000
     13 C13        -11.8871   7.4018  20.3262 C.ar           1 RES1               0.0000
     14 C14        -11.8951   5.1716  21.1664 C.ar           1 RES1               0.0000
     15 C15        -11.7896   2.2924  16.8029 C.2            1 RES1               0.0000
     16 C16        -11.7669   6.5268  21.3848 C.ar           1 RES1               0.0000
     17 O17        -11.4436   1.1394  16.5621 O.2            1 RES1               0.0000
     18 H18        -14.0597   6.5429  17.0024 H              1 RES1               0.0000
     19 H19        -12.4984   6.8619  16.2257 H              1 RES1               0.0000
     20 H20        -12.2251   7.6260  18.2297 H              1 RES1               0.0000
     21 H21        -12.2403   3.6200  19.7434 H              1 RES1               0.0000
     22 H22         -9.9400   3.0943  16.4779 H              1 RES1               0.0000
     23 H23        -13.7303   1.8530  17.2468 H              1 RES1               0.0000
     24 H24        -14.2158   6.2625  14.5500 H              1 RES1               0.0000
     25 H25        -12.9474   5.0399  14.5867 H              1 RES1               0.0000
     26 H26        -14.4994   4.7228  15.3588 H              1 RES1               0.0000
     27 H27        -11.7857   8.4691  20.4926 H              1 RES1               0.0000
     28 H28        -11.8006   4.4794  21.9965 H              1 RES1               0.0000
     29 H29        -11.5722   6.9026  22.3839 H              1 RES1               0.0000
@<TRIPOS>BOND
    1    1    2 1     
    2    1    3 1     
    3    1    4 1     
    4    1    5 1     
    5    2    6 ar    
    6    2    7 ar    
    7    3    8 1     
    8    3    9 2     
    9    4   10 1     
   10    4   11 2     
   11    5   12 1     
   12    5   18 1     
   13    5   19 1     
   14    6   13 ar    
   15    6   20 1     
   16    7   14 ar    
   17    7   21 1     
   18    8   15 1     
   19    8   22 1     
   20   10   15 1     
   21   10   23 1     
   22   12   24 1     
   23   12   25 1     
   24   12   26 1     
   25   13   16 ar    
   26   13   27 1     
   27   14   16 ar    
   28   14   28 1     
   29   15   17 2     
   30   16   29 1     
@<TRIPOS>SUBSTRUCTURE
      1 RES1           1
@<TRIPOS>SET
DONOR_HYDROGENS      STATIC     ATOMS    <user>   **** ""
2 22 23
ATOM$RED        STATIC     ATOMS    COLORGROUP SYSTEM
2 22 23
@<TRIPOS>COMMENT
> <Gold.Version>
2022.3.0

> <Gold.Id.Protein>
unknown|3mvj_clean|pdb

> <Gold.Protein.RotatedTorsions>
[ 11826 11799 11798 11795 ] final   57.83 input   60.01 | X-H torsion
[ 11911 11856 11855 11854 ] final   89.83 input   60.02 | X-H torsion
[ 10977 10959 10958 10956 ] final   88.78 input   60.00 | X-H torsion
[ 10969 10948 10949 10950 ] final  -44.28 input   32.02 | X-H torsion
[ 10737 10719 10718 10716 ] final  -68.87 input   60.01 | X-H torsion
[ 12076 12056 12057 12058 ] final  -71.61 input   63.02 | X-H torsion
[ 10918 10911 10912 10913 ] final -117.79 input  -92.90 | X-H torsion
[ 6164 6140 6141 6142 ] final  176.54 input   39.58 | X-H torsion
[ 6112 6105 6106 6107 ] final -175.64 input  -69.34 | X-H torsion
[ 5955 5918 5919 5920 ] final   25.91 input  125.26 | X-H torsion
[ 6027 5990 5991 5992 ] final  -77.48 input  110.40 | X-H torsion
[ 6075 6056 6057 6058 ] final -173.67 input  107.04 | X-H torsion
[ 11686 11631 11630 11629 ] final  145.29 input   60.02 | X-H torsion
[ 11211 11201 11202 11203 ] final  -34.20 input   18.84 | X-H torsion
[ 11249 11237 11238 11239 ] final  108.76 input  111.29 | X-H torsion
[ 11173 11153 11154 11155 ] final  141.85 input   30.50 | X-H torsion
[ 11292 11275 11276 11277 ] final  -36.70 input   58.53 | X-H torsion
[ 9451 9430 9431 9432 ] final  -23.34 input  110.06 | X-H torsion
[ 11493 11474 11475 11476 ] final  -52.66 input  115.95 | X-H torsion
[ 11385 11366 11367 11368 ] final   27.87 input  117.79 | X-H torsion
[ 11568 11550 11549 11547 ] final -150.89 input   59.97 | X-H torsion
[ 9369 9348 9346 9343 ] final   53.01 input   60.02 | X-H torsion
[ 9511 9481 9482 9483 ] final  178.36 input   75.78 | X-H torsion
[ 15475 15466 15465 15463 ] final   50.15 input   60.00 | X-H torsion
[ 7755 7731 7730 7729 ] final   54.66 input   60.02 | X-H torsion
[ 7846 7831 7832 7833 ] final   95.82 input  113.97 | X-H torsion
[ 5737 5717 5718 5719 ] final   56.55 input  137.93 | X-H torsion
[ 5778 5767 5768 5769 ] final  -98.60 input  116.46 | X-H torsion
[ 1839 1818 1819 1820 ] final  102.88 input   43.70 | X-H torsion
[ 5782 5772 5771 5768 ] final  173.95 input   59.97 | X-H torsion
[ 15411 15403 15404 15405 ] final -167.61 input  102.24 | X-H torsion
[ 1801 1791 1792 1793 ] final   96.36 input  -10.55 | X-H torsion
[ 5632 5617 5618 5619 ] final  111.85 input   93.34 | X-H torsion
[ 7884 7874 7875 7876 ] final -131.61 input   68.03 | X-H torsion
[ 1845 1824 1822 1819 ] final  -39.82 input   60.02 | X-H torsion
[ 1864 1854 1855 1856 ] final -143.60 input   57.50 | X-H torsion
[ 9363 9342 9343 9344 ] final  -65.29 input   55.58 | X-H torsion
[ 9519 9492 9491 9489 ] final  126.14 input   60.02 | X-H torsion
[ 7745 7723 7724 7725 ] final  -10.22 input   17.81 | X-H torsion
[ 1896 1884 1883 1880 ] final  -52.45 input   60.01 | X-H torsion
[ 9325 9315 9316 9317 ] final  -39.03 input  -36.21 | X-H torsion
[ 1892 1879 1880 1881 ] final   96.88 input   98.21 | X-H torsion
[ 9302 9286 9287 9288 ] final  -91.02 input   37.00 | X-H torsion
[ 9263 9233 9234 9235 ] final   89.62 input   95.32 | X-H torsion
[ 3370 3362 3363 3364 ] final  -31.57 input   97.92 | X-H torsion
[ 1947 1922 1923 1924 ] final   -2.53 input  104.43 | X-H torsion
[ 12159 12148 12149 12150 ] final  -26.11 input  116.04 | X-H torsion
[ 11673 11649 11648 11647 ] final -155.29 input   59.99 | X-H torsion
[ 12008 11984 11985 11986 ] final -155.67 input   61.04 | X-H torsion
[ 11113 11093 11094 11095 ] final   -5.84 input   39.50 | X-H torsion
[ 7924 7916 7917 7918 ] final   98.50 input   66.66 | X-H torsion
[ 8650 8630 8631 8632 ] final   20.28 input   75.31 | X-H torsion
[ 9566 9536 9537 9538 ] final   42.79 input  103.50 | X-H torsion
[ 16472 10886 10885 10884 ] final  115.07 input    0.00 | X-H torsion
[ 16475 11004 11003 11002 ] final -176.14 input    0.00 | X-H torsion
[ 16477 10914 10913 10912 ] final   65.79 input    0.00 | X-H torsion
[ 16479 10951 10950 10949 ] final  -40.53 input   -0.00 | X-H torsion
[ 16484 11987 11986 11985 ] final   -2.43 input    0.00 | X-H torsion
[ 16486 12059 12058 12057 ] final -110.70 input   -0.00 | X-H torsion
[ 16490 11046 11045 11044 ] final -159.49 input    0.00 | X-H torsion
[ 16500 6108 6107 6106 ] final  -52.69 input    0.00 | X-H torsion
[ 16503 5921 5920 5919 ] final -109.14 input   -0.00 | X-H torsion
[ 16506 6059 6058 6057 ] final  -21.76 input    0.00 | X-H torsion
[ 16510 5858 5857 5856 ] final   83.37 input    0.00 | X-H torsion
[ 16518 5993 5992 5991 ] final    4.90 input   -0.00 | X-H torsion
[ 16523 11156 11155 11154 ] final  108.75 input    0.00 | X-H torsion
[ 16528 11204 11203 11202 ] final  -79.64 input    0.00 | X-H torsion
[ 16540 11096 11095 11094 ] final   87.62 input   -0.00 | X-H torsion
[ 16544 10768 10767 10766 ] final   73.54 input   -0.00 | X-H torsion
[ 16552 11240 11239 11238 ] final    6.08 input    0.00 | X-H torsion
[ 16558 11278 11277 11276 ] final -159.84 input   -0.00 | X-H torsion
[ 16562 11325 11324 11323 ] final  -58.49 input   -0.00 | X-H torsion
[ 16566 9387 9386 9385 ] final -162.65 input   -0.00 | X-H torsion
[ 16570 9345 9344 9343 ] final  -61.41 input    0.00 | X-H torsion
[ 16579 5720 5719 5718 ] final   53.87 input    0.00 | X-H torsion
[ 16592 1821 1820 1819 ] final  115.93 input    0.00 | X-H torsion
[ 16594 7834 7833 7832 ] final  -43.08 input    0.00 | X-H torsion
[ 16600 1745 1744 1743 ] final  -38.87 input    0.00 | X-H torsion
[ 16608 5620 5619 5618 ] final  149.73 input   -0.00 | X-H torsion
[ 16610 7788 7787 7786 ] final   62.36 input   -0.00 | X-H torsion
[ 16613 1794 1793 1792 ] final  -99.35 input   -0.00 | X-H torsion
[ 16622 9318 9317 9316 ] final  -13.51 input   -0.00 | X-H torsion
[ 16627 9433 9432 9431 ] final  -68.40 input    0.00 | X-H torsion
[ 16631 7667 7666 7665 ] final   17.40 input   -0.00 | X-H torsion
[ 16635 7726 7725 7724 ] final  -23.18 input    0.00 | X-H torsion
[ 16637 10539 10538 10537 ] final  -58.34 input   -0.00 | X-H torsion
[ 16643 1857 1856 1855 ] final   -1.01 input    0.00 | X-H torsion
[ 16645 7565 7564 7563 ] final  155.14 input    0.00 | X-H torsion
[ 16647 9289 9288 9287 ] final  148.91 input    0.00 | X-H torsion
[ 16649 9236 9235 9234 ] final  110.20 input    0.00 | X-H torsion
[ 16655 3365 3364 3363 ] final -114.77 input    0.00 | X-H torsion

> <Gold.Protein.ActiveResidues>
 LEU49   GLY50   THR51   GLY52   SER53   PHE54   VAL57   LEU82   LYS83   GLN84  
 HIS87   GLU127  PHE129  SER130  LEU132  ARG133  ARG134  ILE135  GLY136  ARG137 
 ARG165  ASP166  LEU167  LYS168  PRO169  GLU170  ASN171  LEU172  LEU173  ASP184 
 GLY186  PHE187  TPO197  LEU198  CYS199  GLY200  THR201  PRO202  GLU203  TYR204 
 LEU205  ILE209  ILE210  VAL226  LEU227  TYR229  GLU230  ALA233  GLY234  TYR235 
 PRO236  PRO237  PHE238  PHE239  ALA240  ASP241  GLN242  PRO243  ILE244  GLN245 
 ILE246  TYR247  GLU248  LYS249  ILE250  VAL251  SER252  LYS254  ARG256  PHE257 
 PRO258  SER259  PHE327  ASP328  TYR330 

> <Gold.Protein.RotatedAtoms>
    0.6456  -14.8149   20.5800 H   0  0  0  0  0  0  0  0  0  0  0  0  # atno 1801 bound_to 1791
   -0.4814  -13.3773   24.5476 H   0  0  0  0  0  0  0  0  0  0  0  0  # atno 1839 bound_to 1818
   -1.1959  -13.8412   28.0334 H   0  0  0  0  0  0  0  0  0  0  0  0  # atno 1845 bound_to 1824
   -2.7752  -15.2917   26.4994 H   0  0  0  0  0  0  0  0  0  0  0  0  # atno 1864 bound_to 1854
   -5.4326  -16.9691   29.9773 H   0  0  0  0  0  0  0  0  0  0  0  0  # atno 1892 bound_to 1879
   -5.0798  -15.3268   32.4529 H   0  0  0  0  0  0  0  0  0  0  0  0  # atno 1896 bound_to 1884
   -3.6698  -19.0738   30.3383 H   0  0  0  0  0  0  0  0  0  0  0  0  # atno 1947 bound_to 1922
   -8.3980  -25.0227   36.5799 H   0  0  0  0  0  0  0  0  0  0  0  0  # atno 3370 bound_to 3362
   -3.9110   -9.9742   14.2587 H   0  0  0  0  0  0  0  0  0  0  0  0  # atno 5632 bound_to 5617
   -7.9910   -7.9426   14.5211 H   0  0  0  0  0  0  0  0  0  0  0  0  # atno 5737 bound_to 5717
   -7.3382   -5.4658   16.1252 H   0  0  0  0  0  0  0  0  0  0  0  0  # atno 5778 bound_to 5767
   -3.0557   -6.3574   14.0942 H   0  0  0  0  0  0  0  0  0  0  0  0  # atno 5782 bound_to 5772
   -8.5100   -1.6117   14.1330 H   0  0  0  0  0  0  0  0  0  0  0  0  # atno 5955 bound_to 5918
   -7.7058    0.7174   15.1103 H   0  0  0  0  0  0  0  0  0  0  0  0  # atno 6027 bound_to 5990
   -6.9559    0.8944   11.5305 H   0  0  0  0  0  0  0  0  0  0  0  0  # atno 6075 bound_to 6056
   -9.3409    2.7884   12.6468 H   0  0  0  0  0  0  0  0  0  0  0  0  # atno 6112 bound_to 6105
  -13.1128    2.5512   12.4900 H   0  0  0  0  0  0  0  0  0  0  0  0  # atno 6164 bound_to 6140
  -14.7472  -13.4044   17.3128 H   0  0  0  0  0  0  0  0  0  0  0  0  # atno 7745 bound_to 7723
  -12.9013  -12.3408   24.4441 H   0  0  0  0  0  0  0  0  0  0  0  0  # atno 7755 bound_to 7731
  -11.5395  -13.2856   24.4290 H   0  0  0  0  0  0  0  0  0  0  0  0  # atno 7756 bound_to 7731
  -11.4493  -11.6937   23.9739 H   0  0  0  0  0  0  0  0  0  0  0  0  # atno 7757 bound_to 7731
  -11.4001  -10.2943   18.3285 H   0  0  0  0  0  0  0  0  0  0  0  0  # atno 7846 bound_to 7831
   -9.4916  -12.5450   18.0409 H   0  0  0  0  0  0  0  0  0  0  0  0  # atno 7884 bound_to 7874
  -10.6318  -12.8170   15.3866 H   0  0  0  0  0  0  0  0  0  0  0  0  # atno 7924 bound_to 7916
  -13.6248  -22.6556   22.3979 H   0  0  0  0  0  0  0  0  0  0  0  0  # atno 8650 bound_to 8630
  -21.1363  -21.1012   32.0779 H   0  0  0  0  0  0  0  0  0  0  0  0  # atno 9263 bound_to 9233
  -20.0352  -18.2619   30.0315 H   0  0  0  0  0  0  0  0  0  0  0  0  # atno 9302 bound_to 9286
  -16.7311  -16.9595   27.6427 H   0  0  0  0  0  0  0  0  0  0  0  0  # atno 9325 bound_to 9315
  -17.6037  -13.9779   26.4205 H   0  0  0  0  0  0  0  0  0  0  0  0  # atno 9363 bound_to 9342
  -15.1266  -13.9308   24.4828 H   0  0  0  0  0  0  0  0  0  0  0  0  # atno 9369 bound_to 9348
  -19.1180   -9.1910   25.9232 H   0  0  0  0  0  0  0  0  0  0  0  0  # atno 9451 bound_to 9430
  -19.1023   -8.8968   23.2729 H   0  0  0  0  0  0  0  0  0  0  0  0  # atno 9511 bound_to 9481
  -16.6342   -8.2273   17.3913 H   0  0  0  0  0  0  0  0  0  0  0  0  # atno 9519 bound_to 9492
  -21.8889  -10.3807   24.5177 H   0  0  0  0  0  0  0  0  0  0  0  0  # atno 9566 bound_to 9536
  -23.7324    1.0901   18.9177 H   0  0  0  0  0  0  0  0  0  0  0  0  # atno 10737 bound_to 10719
  -17.1227    0.0157   13.7664 H   0  0  0  0  0  0  0  0  0  0  0  0  # atno 10918 bound_to 10911
  -16.9418   -0.1312   16.3875 H   0  0  0  0  0  0  0  0  0  0  0  0  # atno 10969 bound_to 10948
  -21.9141    5.5323   18.1251 H   0  0  0  0  0  0  0  0  0  0  0  0  # atno 10977 bound_to 10959
  -21.7940   -2.3709   22.3289 H   0  0  0  0  0  0  0  0  0  0  0  0  # atno 11113 bound_to 11093
  -21.0946   -1.3895   24.4368 H   0  0  0  0  0  0  0  0  0  0  0  0  # atno 11173 bound_to 11153
  -18.2369   -0.7729   27.7788 H   0  0  0  0  0  0  0  0  0  0  0  0  # atno 11211 bound_to 11201
  -18.2439    1.2116   31.7476 H   0  0  0  0  0  0  0  0  0  0  0  0  # atno 11249 bound_to 11237
  -17.2897   -1.4164   32.0690 H   0  0  0  0  0  0  0  0  0  0  0  0  # atno 11292 bound_to 11275
  -19.8185   -5.0123   33.9405 H   0  0  0  0  0  0  0  0  0  0  0  0  # atno 11385 bound_to 11366
  -22.9115   -3.1987   31.4945 H   0  0  0  0  0  0  0  0  0  0  0  0  # atno 11493 bound_to 11474
  -19.3042  -11.1705   32.5055 H   0  0  0  0  0  0  0  0  0  0  0  0  # atno 11568 bound_to 11550
  -24.7188    2.9495   27.4930 H   0  0  0  0  0  0  0  0  0  0  0  0  # atno 11673 bound_to 11649
  -25.4661    2.0572   28.6739 H   0  0  0  0  0  0  0  0  0  0  0  0  # atno 11674 bound_to 11649
  -23.9370    2.6466   28.9236 H   0  0  0  0  0  0  0  0  0  0  0  0  # atno 11675 bound_to 11649
   -9.2568    8.6493   26.9189 H   0  0  0  0  0  0  0  0  0  0  0  0  # atno 11686 bound_to 11631
   -8.7121    8.0293   25.4820 H   0  0  0  0  0  0  0  0  0  0  0  0  # atno 11687 bound_to 11631
   -7.8715    9.2453   26.2304 H   0  0  0  0  0  0  0  0  0  0  0  0  # atno 11688 bound_to 11631
  -13.3630   16.9202   23.1126 H   0  0  0  0  0  0  0  0  0  0  0  0  # atno 11826 bound_to 11799
  -18.1828   15.3915   25.2987 H   0  0  0  0  0  0  0  0  0  0  0  0  # atno 11911 bound_to 11856
  -17.7384   16.4057   24.0650 H   0  0  0  0  0  0  0  0  0  0  0  0  # atno 11912 bound_to 11856
  -16.8188   15.0708   24.4123 H   0  0  0  0  0  0  0  0  0  0  0  0  # atno 11913 bound_to 11856
  -29.4025    1.1936   20.1530 H   0  0  0  0  0  0  0  0  0  0  0  0  # atno 12008 bound_to 11984
  -27.2905    3.2783   17.5713 H   0  0  0  0  0  0  0  0  0  0  0  0  # atno 12076 bound_to 12056
  -24.7661    6.4244   12.5092 H   0  0  0  0  0  0  0  0  0  0  0  0  # atno 12159 bound_to 12148
    0.6983   -7.5174   17.3506 H   0  0  0  0  0  0  0  0  0  0  0  0  # atno 15411 bound_to 15403
   -1.6397  -10.8359   21.0442 H   0  0  0  0  0  0  0  0  0  0  0  0  # atno 15475 bound_to 15466
  -12.3217   16.0404   22.2241 LP  0  0  0  0  0  0  0  0  0  0  0  0  # atno 16466 bound_to 11799
  -13.2065   15.3255   23.3957 LP  0  0  0  0  0  0  0  0  0  0  0  0  # atno 16467 bound_to 11799
  -22.5585    4.2400   17.3747 LP  0  0  0  0  0  0  0  0  0  0  0  0  # atno 16468 bound_to 10959
  -21.5240    5.2194   16.5764 LP  0  0  0  0  0  0  0  0  0  0  0  0  # atno 16469 bound_to 10959
  -17.2735    3.3025   15.3089 LP  0  0  0  0  0  0  0  0  0  0  0  0  # atno 16472 bound_to 10886
  -17.4319    3.6346   13.6163 LP  0  0  0  0  0  0  0  0  0  0  0  0  # atno 16473 bound_to 10886
  -16.7297    1.5663   16.7700 LP  0  0  0  0  0  0  0  0  0  0  0  0  # atno 16474 bound_to 10948
  -21.5066   -0.2333   21.2813 LP  0  0  0  0  0  0  0  0  0  0  0  0  # atno 16475 bound_to 11004
  -19.7898   -0.1938   21.0561 LP  0  0  0  0  0  0  0  0  0  0  0  0  # atno 16476 bound_to 11004
  -14.2400    1.9823   17.2076 LP  0  0  0  0  0  0  0  0  0  0  0  0  # atno 16477 bound_to 10914
  -14.2710    0.3331   17.7361 LP  0  0  0  0  0  0  0  0  0  0  0  0  # atno 16478 bound_to 10914
  -19.5125    0.1612   17.3353 LP  0  0  0  0  0  0  0  0  0  0  0  0  # atno 16479 bound_to 10951
  -19.5709   -1.5663   17.4462 LP  0  0  0  0  0  0  0  0  0  0  0  0  # atno 16480 bound_to 10951
  -24.8394    1.4028   17.7668 LP  0  0  0  0  0  0  0  0  0  0  0  0  # atno 16482 bound_to 10719
  -23.2848    1.8545   17.5528 LP  0  0  0  0  0  0  0  0  0  0  0  0  # atno 16483 bound_to 10719
  -26.1827    1.3441   18.7399 LP  0  0  0  0  0  0  0  0  0  0  0  0  # atno 16484 bound_to 11987
  -25.7919    1.6604   17.0824 LP  0  0  0  0  0  0  0  0  0  0  0  0  # atno 16485 bound_to 11987
  -27.1432    5.8838   14.4076 LP  0  0  0  0  0  0  0  0  0  0  0  0  # atno 16486 bound_to 12059
  -27.0951    5.7273   16.1319 LP  0  0  0  0  0  0  0  0  0  0  0  0  # atno 16487 bound_to 12059
  -24.3104   -0.5155   23.2301 LP  0  0  0  0  0  0  0  0  0  0  0  0  # atno 16490 bound_to 11046
  -25.0747   -0.6004   21.6781 LP  0  0  0  0  0  0  0  0  0  0  0  0  # atno 16491 bound_to 11046
  -28.7132    3.1157   16.5709 LP  0  0  0  0  0  0  0  0  0  0  0  0  # atno 16492 bound_to 12056
  -17.7003    1.4630   14.5645 LP  0  0  0  0  0  0  0  0  0  0  0  0  # atno 16493 bound_to 10911
  -12.3911    0.5615   14.0135 LP  0  0  0  0  0  0  0  0  0  0  0  0  # atno 16500 bound_to 6108
  -13.9868    1.2045   13.8133 LP  0  0  0  0  0  0  0  0  0  0  0  0  # atno 16501 bound_to 6108
  -12.3130    2.3216   10.9529 LP  0  0  0  0  0  0  0  0  0  0  0  0  # atno 16502 bound_to 6140
   -8.8496    2.3298   14.6364 LP  0  0  0  0  0  0  0  0  0  0  0  0  # atno 16503 bound_to 5921
   -8.2715    2.2910   16.2687 LP  0  0  0  0  0  0  0  0  0  0  0  0  # atno 16504 bound_to 5921
  -10.3198    1.5540   11.8833 LP  0  0  0  0  0  0  0  0  0  0  0  0  # atno 16505 bound_to 6105
   -9.2548    4.5986   10.5854 LP  0  0  0  0  0  0  0  0  0  0  0  0  # atno 16506 bound_to 6059
  -10.8208    4.4366   11.3076 LP  0  0  0  0  0  0  0  0  0  0  0  0  # atno 16507 bound_to 6059
  -11.0445    0.2300   13.7395 LP  0  0  0  0  0  0  0  0  0  0  0  0  # atno 16510 bound_to 5858
   -9.4712    0.5426   13.0859 LP  0  0  0  0  0  0  0  0  0  0  0  0  # atno 16511 bound_to 5858
   -9.8680   -2.1284   15.1016 LP  0  0  0  0  0  0  0  0  0  0  0  0  # atno 16516 bound_to 5918
   -6.9544   -0.6049   14.2377 LP  0  0  0  0  0  0  0  0  0  0  0  0  # atno 16517 bound_to 5990
   -6.1044    3.7716   12.9782 LP  0  0  0  0  0  0  0  0  0  0  0  0  # atno 16518 bound_to 5993
   -7.3199    3.8046   11.7447 LP  0  0  0  0  0  0  0  0  0  0  0  0  # atno 16519 bound_to 5993
   -8.1157    1.4123   12.7212 LP  0  0  0  0  0  0  0  0  0  0  0  0  # atno 16520 bound_to 6056
  -21.5794    0.4115   27.9087 LP  0  0  0  0  0  0  0  0  0  0  0  0  # atno 16523 bound_to 11156
  -20.7065    1.3206   26.7206 LP  0  0  0  0  0  0  0  0  0  0  0  0  # atno 16524 bound_to 11156
  -19.9685   -0.9470   27.9910 LP  0  0  0  0  0  0  0  0  0  0  0  0  # atno 16525 bound_to 11201
  -16.8666   -1.6673   29.7388 LP  0  0  0  0  0  0  0  0  0  0  0  0  # atno 16528 bound_to 11204
  -16.0174   -0.2470   29.2275 LP  0  0  0  0  0  0  0  0  0  0  0  0  # atno 16529 bound_to 11204
  -17.5928    0.2142   30.4686 LP  0  0  0  0  0  0  0  0  0  0  0  0  # atno 16530 bound_to 11237
  -21.8924   -1.3912   25.9950 LP  0  0  0  0  0  0  0  0  0  0  0  0  # atno 16533 bound_to 11153
  -20.1566   -3.5631   23.8794 LP  0  0  0  0  0  0  0  0  0  0  0  0  # atno 16540 bound_to 11096
  -20.7704   -4.1662   25.3826 LP  0  0  0  0  0  0  0  0  0  0  0  0  # atno 16541 bound_to 11096
  -15.9715   -2.0924   14.9879 LP  0  0  0  0  0  0  0  0  0  0  0  0  # atno 16544 bound_to 10768
  -17.0315   -1.2785   13.8861 LP  0  0  0  0  0  0  0  0  0  0  0  0  # atno 16545 bound_to 10768
  -14.2349   -1.0145   32.2693 LP  0  0  0  0  0  0  0  0  0  0  0  0  # atno 16552 bound_to 11240
  -15.0135   -2.4519   32.8419 LP  0  0  0  0  0  0  0  0  0  0  0  0  # atno 16553 bound_to 11240
  -17.2163   -0.6319   33.6290 LP  0  0  0  0  0  0  0  0  0  0  0  0  # atno 16554 bound_to 11275
  -19.8398   -4.1843   32.3046 LP  0  0  0  0  0  0  0  0  0  0  0  0  # atno 16558 bound_to 11278
  -19.2960   -2.5411   32.2400 LP  0  0  0  0  0  0  0  0  0  0  0  0  # atno 16559 bound_to 11278
  -17.9054   -7.9599   26.1970 LP  0  0  0  0  0  0  0  0  0  0  0  0  # atno 16561 bound_to 9430
  -20.8927   -5.5820   31.2866 LP  0  0  0  0  0  0  0  0  0  0  0  0  # atno 16562 bound_to 11325
  -21.5061   -6.9658   32.1285 LP  0  0  0  0  0  0  0  0  0  0  0  0  # atno 16563 bound_to 11325
  -21.2269   -3.6798   31.5264 LP  0  0  0  0  0  0  0  0  0  0  0  0  # atno 16564 bound_to 11474
  -19.6790   -6.7208   34.2362 LP  0  0  0  0  0  0  0  0  0  0  0  0  # atno 16565 bound_to 11366
  -21.1761   -8.4556   25.9848 LP  0  0  0  0  0  0  0  0  0  0  0  0  # atno 16566 bound_to 9387
  -21.0992   -9.0369   27.6146 LP  0  0  0  0  0  0  0  0  0  0  0  0  # atno 16567 bound_to 9387
  -18.6286   -9.8393   31.8579 LP  0  0  0  0  0  0  0  0  0  0  0  0  # atno 16568 bound_to 11550
  -19.2327  -11.0061   30.8882 LP  0  0  0  0  0  0  0  0  0  0  0  0  # atno 16569 bound_to 11550
  -18.4305  -11.2299   24.4059 LP  0  0  0  0  0  0  0  0  0  0  0  0  # atno 16570 bound_to 9345
  -19.4384  -11.5892   25.7679 LP  0  0  0  0  0  0  0  0  0  0  0  0  # atno 16571 bound_to 9345
  -13.9821  -13.1522   25.3380 LP  0  0  0  0  0  0  0  0  0  0  0  0  # atno 16572 bound_to 9348
  -14.0795  -12.9455   23.7210 LP  0  0  0  0  0  0  0  0  0  0  0  0  # atno 16573 bound_to 9348
  -20.0444   -9.6389   24.5467 LP  0  0  0  0  0  0  0  0  0  0  0  0  # atno 16574 bound_to 9481
   -8.8040   -3.8931   16.6014 LP  0  0  0  0  0  0  0  0  0  0  0  0  # atno 16579 bound_to 5720
   -8.1355   -3.5387   15.0434 LP  0  0  0  0  0  0  0  0  0  0  0  0  # atno 16580 bound_to 5720
   -1.3884   -9.2317   21.1497 LP  0  0  0  0  0  0  0  0  0  0  0  0  # atno 16587 bound_to 15466
   -2.1823  -10.0168   22.3413 LP  0  0  0  0  0  0  0  0  0  0  0  0  # atno 16588 bound_to 15466
  -10.6078   -9.9056   16.8109 LP  0  0  0  0  0  0  0  0  0  0  0  0  # atno 16591 bound_to 7831
   -3.9632  -13.8857   26.0645 LP  0  0  0  0  0  0  0  0  0  0  0  0  # atno 16592 bound_to 1821
   -2.7134  -13.0706   26.9441 LP  0  0  0  0  0  0  0  0  0  0  0  0  # atno 16593 bound_to 1821
   -7.2072  -12.3378   17.6690 LP  0  0  0  0  0  0  0  0  0  0  0  0  # atno 16594 bound_to 7834
   -7.9318  -13.7691   18.3219 LP  0  0  0  0  0  0  0  0  0  0  0  0  # atno 16595 bound_to 7834
   -9.7253   -7.7412   14.3380 LP  0  0  0  0  0  0  0  0  0  0  0  0  # atno 16596 bound_to 5717
   -6.5481   -6.4841   14.9411 LP  0  0  0  0  0  0  0  0  0  0  0  0  # atno 16597 bound_to 5767
   -0.0404  -12.3521   18.9092 LP  0  0  0  0  0  0  0  0  0  0  0  0  # atno 16600 bound_to 1745
   -1.1553  -13.4018   19.7184 LP  0  0  0  0  0  0  0  0  0  0  0  0  # atno 16601 bound_to 1745
   -1.3839  -14.6297   23.7247 LP  0  0  0  0  0  0  0  0  0  0  0  0  # atno 16602 bound_to 1818
   -4.2826   -5.6447   13.2974 LP  0  0  0  0  0  0  0  0  0  0  0  0  # atno 16603 bound_to 5772
   -4.5794   -6.8820   14.3209 LP  0  0  0  0  0  0  0  0  0  0  0  0  # atno 16604 bound_to 5772
    1.8114   -8.8069   17.7427 LP  0  0  0  0  0  0  0  0  0  0  0  0  # atno 16605 bound_to 15403
    1.4975  -13.5853   21.4896 LP  0  0  0  0  0  0  0  0  0  0  0  0  # atno 16606 bound_to 1791
   -4.3380  -10.2661   12.5852 LP  0  0  0  0  0  0  0  0  0  0  0  0  # atno 16607 bound_to 5617
   -6.5447   -7.4147   12.5678 LP  0  0  0  0  0  0  0  0  0  0  0  0  # atno 16608 bound_to 5620
   -5.5269   -7.7513   13.9282 LP  0  0  0  0  0  0  0  0  0  0  0  0  # atno 16609 bound_to 5620
   -9.6887   -9.5124   15.0097 LP  0  0  0  0  0  0  0  0  0  0  0  0  # atno 16610 bound_to 7788
   -9.6441  -11.1929   15.4267 LP  0  0  0  0  0  0  0  0  0  0  0  0  # atno 16611 bound_to 7788
  -10.9608  -12.5144   17.1015 LP  0  0  0  0  0  0  0  0  0  0  0  0  # atno 16612 bound_to 7874
   -0.2669  -16.7170   23.4015 LP  0  0  0  0  0  0  0  0  0  0  0  0  # atno 16613 bound_to 1794
    1.2246  -15.8469   23.5369 LP  0  0  0  0  0  0  0  0  0  0  0  0  # atno 16614 bound_to 1794
    0.2990  -13.9283   28.6703 LP  0  0  0  0  0  0  0  0  0  0  0  0  # atno 16615 bound_to 1824
   -0.6461  -15.2588   28.6130 LP  0  0  0  0  0  0  0  0  0  0  0  0  # atno 16616 bound_to 1824
   -2.0660  -16.7562   27.1569 LP  0  0  0  0  0  0  0  0  0  0  0  0  # atno 16617 bound_to 1854
  -15.8814  -15.4389   27.9245 LP  0  0  0  0  0  0  0  0  0  0  0  0  # atno 16622 bound_to 9318
  -15.2486  -13.9312   27.3531 LP  0  0  0  0  0  0  0  0  0  0  0  0  # atno 16623 bound_to 9318
  -16.9786  -13.9989   24.7864 LP  0  0  0  0  0  0  0  0  0  0  0  0  # atno 16624 bound_to 9342
  -21.9279   -7.5112   23.5508 LP  0  0  0  0  0  0  0  0  0  0  0  0  # atno 16627 bound_to 9433
  -21.0201   -7.6890   22.0865 LP  0  0  0  0  0  0  0  0  0  0  0  0  # atno 16628 bound_to 9433
  -16.3615   -7.1556   18.5851 LP  0  0  0  0  0  0  0  0  0  0  0  0  # atno 16629 bound_to 9492
  -17.7696   -7.1210   17.7589 LP  0  0  0  0  0  0  0  0  0  0  0  0  # atno 16630 bound_to 9492
  -17.7048  -13.3541   19.8548 LP  0  0  0  0  0  0  0  0  0  0  0  0  # atno 16631 bound_to 7667
  -16.9244  -11.8422   19.5305 LP  0  0  0  0  0  0  0  0  0  0  0  0  # atno 16632 bound_to 7667
  -15.7350  -13.3140   18.7595 LP  0  0  0  0  0  0  0  0  0  0  0  0  # atno 16634 bound_to 7723
  -13.0603  -13.0865   17.0788 LP  0  0  0  0  0  0  0  0  0  0  0  0  # atno 16635 bound_to 7726
  -12.5733  -12.0300   15.7955 LP  0  0  0  0  0  0  0  0  0  0  0  0  # atno 16636 bound_to 7726
  -21.1791   -5.6271   16.1808 LP  0  0  0  0  0  0  0  0  0  0  0  0  # atno 16637 bound_to 10539
  -19.6193   -6.1039   16.7635 LP  0  0  0  0  0  0  0  0  0  0  0  0  # atno 16638 bound_to 10539
   -6.4865  -15.7795   33.1338 LP  0  0  0  0  0  0  0  0  0  0  0  0  # atno 16639 bound_to 1884
   -6.2783  -15.9094   31.5193 LP  0  0  0  0  0  0  0  0  0  0  0  0  # atno 16640 bound_to 1884
  -18.4285  -17.3199   27.3997 LP  0  0  0  0  0  0  0  0  0  0  0  0  # atno 16641 bound_to 9315
   -3.7242  -16.7839   29.6517 LP  0  0  0  0  0  0  0  0  0  0  0  0  # atno 16642 bound_to 1879
   -1.6083  -16.5550   29.0116 LP  0  0  0  0  0  0  0  0  0  0  0  0  # atno 16643 bound_to 1857
   -2.0180  -17.1495   30.5860 LP  0  0  0  0  0  0  0  0  0  0  0  0  # atno 16644 bound_to 1857
  -17.0225  -17.4490   23.0906 LP  0  0  0  0  0  0  0  0  0  0  0  0  # atno 16645 bound_to 7565
  -18.7221  -17.6240   23.3746 LP  0  0  0  0  0  0  0  0  0  0  0  0  # atno 16646 bound_to 7565
  -20.0376  -16.6260   26.5055 LP  0  0  0  0  0  0  0  0  0  0  0  0  # atno 16647 bound_to 9289
  -20.3054  -18.3047   26.8378 LP  0  0  0  0  0  0  0  0  0  0  0  0  # atno 16648 bound_to 9289
  -18.1822  -19.8011   31.2342 LP  0  0  0  0  0  0  0  0  0  0  0  0  # atno 16649 bound_to 9236
  -18.6637  -18.3142   31.9808 LP  0  0  0  0  0  0  0  0  0  0  0  0  # atno 16650 bound_to 9236
  -20.2316  -19.6045   28.9294 LP  0  0  0  0  0  0  0  0  0  0  0  0  # atno 16653 bound_to 9286
  -21.7869  -21.1367   30.4544 LP  0  0  0  0  0  0  0  0  0  0  0  0  # atno 16654 bound_to 9233
  -12.0664  -23.3661   34.5203 LP  0  0  0  0  0  0  0  0  0  0  0  0  # atno 16655 bound_to 3365
  -10.8080  -23.1966   33.3422 LP  0  0  0  0  0  0  0  0  0  0  0  0  # atno 16656 bound_to 3365
   -7.1317  -23.8992   36.1449 LP  0  0  0  0  0  0  0  0  0  0  0  0  # atno 16657 bound_to 3362
   -5.2575  -19.5102   30.9390 LP  0  0  0  0  0  0  0  0  0  0  0  0  # atno 16658 bound_to 1922

> <Gold.Score>
     Fitness  S(hb_ext) S(vdw_ext)  S(hb_int)    S(int)      intcor
     31.14       2.07      21.55       0.00      -0.55      -0.76

> <Gold.Goldscore.Fitness>
31.1432

> <Gold.Goldscore.Internal.Vdw>
-0.7439

> <Gold.Goldscore.Internal.Torsion>
-0.5668

> <Gold.Goldscore.External.Vdw>
21.5475

> <Gold.Goldscore.Internal.HBond>
0.0000

> <Gold.Goldscore.External.HBond>
2.0676

> <Gold.Goldscore.Internal.Correction>
-0.7585

> <Gold.Goldscore.Hbonds>
donor molecule, donor type, donor heavy atom, donor atom, acceptor molecule, acceptor atom, score
      P1  H  5925  5963       L1    17  0.07
      L1  H     8    22       P1  5921  0.08
      L1  H    10    23       P1 10914  0.73

> <Gold.Goldscore.Internal.Vdw.Weighted>
-0.7439

> <Gold.Goldscore.Internal.Torsion.Weighted>
-0.5668

> <Gold.Goldscore.External.Vdw.Weighted>
29.6278

> <Gold.Goldscore.Internal.HBond.Weighted>
0.0000

> <Gold.Goldscore.External.HBond.Weighted>
2.0676

> <Gold.Goldscore.Internal.Correction.Weighted>
-0.7585

> <Gold.Rescore>
     Score     S(PLP)   S(hbond)     S(cho)   S(metal)  DE(clash)   DE(tors)     intcor
     24.14     -19.78       2.03       0.00       0.00       0.00       0.86       ----

> <Gold.PLP.Fitness>
24.1380

> <Gold.PLP.PLP>
-19.7783

> <Gold.PLP.part.hbond>
-2.5706

> <Gold.PLP.part.metal>
0.0000

> <Gold.PLP.part.buried>
5.9321

> <Gold.PLP.part.nonpolar>
-24.0339

> <Gold.PLP.part.repulsive>
1.7316

> <Gold.PLP.ligand.clash>
0.0000

> <Gold.PLP.ligand.torsion>
0.8650

> <Gold.PLP.Chemscore.Hbond>
2.0299

> <Gold.PLP.Chemscore.CHOScore>
0.0000

> <Gold.PLP.Chemscore.Metal>
0.0000

> <Gold.Chemscore.Hbonds>
donor molecule, donor type, donor heavy atom, donor atom, acceptor molecule, acceptor atom, score
      L1  H     8    22       P1  5921  0.60
      L1  H    10    23       P1 10914  0.05
      P1  H  5925  5963       L1    17  0.39

> <Gold.PLP.Chemscore.Internal.Correction>
   9.000000E+99

