#       Name:                CT1002167954
#       Creating user name   hitesit
#       Creation time:       Sun Apr 16 22:52:01 2023


#       File generated by GOLD software.
#

@<TRIPOS>MOLECULE
CT1002167954|ligand_prepared|mol2|1|dock6
    29    30     1
SMALL
NO_CHARGES


@<TRIPOS>ATOM
      1 C1         -13.6984   0.7423  21.9469 C.3            1 RES1               0.0000
      2 C2         -12.5622  -0.2422  22.2913 C.ar           1 RES1               0.0000
      3 C3         -13.1257   2.1430  22.1428 C.2            1 RES1               0.0000
      4 C4         -14.1100   0.4336  20.5116 C.2            1 RES1               0.0000
      5 C5         -14.9484   0.5927  22.8450 C.3            1 RES1               0.0000
      6 C6         -11.2352   0.0895  22.0347 C.ar           1 RES1               0.0000
      7 C7         -12.8247  -1.4823  22.8673 C.ar           1 RES1               0.0000
      8 N8         -12.8381   2.8700  21.0253 N.am           1 RES1               0.0000
      9 O9         -12.8930   2.5877  23.2601 O.2            1 RES1               0.0000
     10 N10        -13.8839   1.3919  19.5586 N.am           1 RES1               0.0000
     11 O11        -14.6127  -0.6374  20.1945 O.2            1 RES1               0.0000
     12 C12        -15.9184   1.7594  22.7451 C.3            1 RES1               0.0000
     13 C13        -10.2076  -0.7856  22.3454 C.ar           1 RES1               0.0000
     14 C14        -11.7956  -2.3560  23.1770 C.ar           1 RES1               0.0000
     15 C15        -13.2386   2.5840  19.7449 C.2            1 RES1               0.0000
     16 C16        -10.4870  -2.0086  22.9171 C.ar           1 RES1               0.0000
     17 O17        -13.0246   3.3703  18.8267 O.2            1 RES1               0.0000
     18 H18        -15.4747  -0.3288  22.5670 H              1 RES1               0.0000
     19 H19        -14.6238   0.4918  23.8880 H              1 RES1               0.0000
     20 H20        -10.9962   1.0465  21.5830 H              1 RES1               0.0000
     21 H21        -13.8467  -1.7772  23.0797 H              1 RES1               0.0000
     22 H22        -12.2729   3.7033  21.1536 H              1 RES1               0.0000
     23 H23        -14.2288   1.1987  18.6236 H              1 RES1               0.0000
     24 H24        -16.7771   1.6039  23.3948 H              1 RES1               0.0000
     25 H25        -15.4353   2.6890  23.0387 H              1 RES1               0.0000
     26 H26        -16.2811   1.8732  21.7256 H              1 RES1               0.0000
     27 H27         -9.1795  -0.5080  22.1376 H              1 RES1               0.0000
     28 H28        -12.0202  -3.3178  23.6263 H              1 RES1               0.0000
     29 H29         -9.6818  -2.6938  23.1608 H              1 RES1               0.0000
@<TRIPOS>BOND
    1    1    2 1     
    2    1    3 1     
    3    1    4 1     
    4    1    5 1     
    5    2    6 ar    
    6    2    7 ar    
    7    3    8 1     
    8    3    9 2     
    9    4   10 1     
   10    4   11 2     
   11    5   12 1     
   12    5   18 1     
   13    5   19 1     
   14    6   13 ar    
   15    6   20 1     
   16    7   14 ar    
   17    7   21 1     
   18    8   15 1     
   19    8   22 1     
   20   10   15 1     
   21   10   23 1     
   22   12   24 1     
   23   12   25 1     
   24   12   26 1     
   25   13   16 ar    
   26   13   27 1     
   27   14   16 ar    
   28   14   28 1     
   29   15   17 2     
   30   16   29 1     
@<TRIPOS>SUBSTRUCTURE
      1 RES1           1
@<TRIPOS>SET
DONOR_HYDROGENS      STATIC     ATOMS    <user>   **** ""
2 22 23
ATOM$RED        STATIC     ATOMS    COLORGROUP SYSTEM
2 22 23
@<TRIPOS>COMMENT
> <Gold.Version>
2022.3.0

> <Gold.Id.Protein>
unknown|3mvj_clean|pdb

> <Gold.Protein.RotatedTorsions>
[ 11826 11799 11798 11795 ] final  -79.74 input   60.01 | X-H torsion
[ 11911 11856 11855 11854 ] final   10.76 input   60.02 | X-H torsion
[ 10977 10959 10958 10956 ] final -121.42 input   60.00 | X-H torsion
[ 10969 10948 10949 10950 ] final  157.02 input   32.02 | X-H torsion
[ 10737 10719 10718 10716 ] final   73.95 input   60.01 | X-H torsion
[ 12076 12056 12057 12058 ] final -146.69 input   63.02 | X-H torsion
[ 10918 10911 10912 10913 ] final  -78.94 input  -92.90 | X-H torsion
[ 6164 6140 6141 6142 ] final -102.89 input   39.58 | X-H torsion
[ 6112 6105 6106 6107 ] final -125.56 input  -69.34 | X-H torsion
[ 5955 5918 5919 5920 ] final  -50.75 input  125.26 | X-H torsion
[ 6027 5990 5991 5992 ] final  152.37 input  110.40 | X-H torsion
[ 6075 6056 6057 6058 ] final -142.09 input  107.04 | X-H torsion
[ 11686 11631 11630 11629 ] final  -11.90 input   60.02 | X-H torsion
[ 11211 11201 11202 11203 ] final   81.93 input   18.84 | X-H torsion
[ 11249 11237 11238 11239 ] final  122.35 input  111.29 | X-H torsion
[ 11173 11153 11154 11155 ] final -100.35 input   30.50 | X-H torsion
[ 11292 11275 11276 11277 ] final  -21.79 input   58.53 | X-H torsion
[ 9451 9430 9431 9432 ] final  139.43 input  110.06 | X-H torsion
[ 11493 11474 11475 11476 ] final   -3.80 input  115.95 | X-H torsion
[ 11385 11366 11367 11368 ] final  -59.58 input  117.79 | X-H torsion
[ 11568 11550 11549 11547 ] final   79.43 input   59.97 | X-H torsion
[ 9369 9348 9346 9343 ] final    3.55 input   60.02 | X-H torsion
[ 9511 9481 9482 9483 ] final   40.41 input   75.78 | X-H torsion
[ 15475 15466 15465 15463 ] final   33.04 input   60.00 | X-H torsion
[ 7755 7731 7730 7729 ] final -130.05 input   60.02 | X-H torsion
[ 7846 7831 7832 7833 ] final  109.53 input  113.97 | X-H torsion
[ 5737 5717 5718 5719 ] final  164.32 input  137.93 | X-H torsion
[ 5778 5767 5768 5769 ] final  175.36 input  116.46 | X-H torsion
[ 1839 1818 1819 1820 ] final -101.38 input   43.70 | X-H torsion
[ 5782 5772 5771 5768 ] final   17.65 input   59.97 | X-H torsion
[ 15411 15403 15404 15405 ] final  163.98 input  102.24 | X-H torsion
[ 1801 1791 1792 1793 ] final -162.61 input  -10.55 | X-H torsion
[ 5632 5617 5618 5619 ] final   -1.06 input   93.34 | X-H torsion
[ 7884 7874 7875 7876 ] final -133.43 input   68.03 | X-H torsion
[ 1845 1824 1822 1819 ] final  -25.89 input   60.02 | X-H torsion
[ 1864 1854 1855 1856 ] final   -0.28 input   57.50 | X-H torsion
[ 9363 9342 9343 9344 ] final  135.66 input   55.58 | X-H torsion
[ 9519 9492 9491 9489 ] final -100.30 input   60.02 | X-H torsion
[ 7745 7723 7724 7725 ] final  117.58 input   17.81 | X-H torsion
[ 1896 1884 1883 1880 ] final -125.80 input   60.01 | X-H torsion
[ 9325 9315 9316 9317 ] final   -2.72 input  -36.21 | X-H torsion
[ 1892 1879 1880 1881 ] final  -95.85 input   98.21 | X-H torsion
[ 9302 9286 9287 9288 ] final  145.07 input   37.00 | X-H torsion
[ 9263 9233 9234 9235 ] final  -50.99 input   95.32 | X-H torsion
[ 3370 3362 3363 3364 ] final  125.99 input   97.92 | X-H torsion
[ 1947 1922 1923 1924 ] final  118.32 input  104.43 | X-H torsion
[ 12159 12148 12149 12150 ] final  -55.70 input  116.04 | X-H torsion
[ 11673 11649 11648 11647 ] final -160.80 input   59.99 | X-H torsion
[ 12008 11984 11985 11986 ] final  145.41 input   61.04 | X-H torsion
[ 11113 11093 11094 11095 ] final  105.61 input   39.50 | X-H torsion
[ 7924 7916 7917 7918 ] final  -22.01 input   66.66 | X-H torsion
[ 8650 8630 8631 8632 ] final   58.31 input   75.31 | X-H torsion
[ 9566 9536 9537 9538 ] final  175.21 input  103.50 | X-H torsion
[ 16472 10886 10885 10884 ] final  156.03 input    0.00 | X-H torsion
[ 16475 11004 11003 11002 ] final  127.83 input    0.00 | X-H torsion
[ 16477 10914 10913 10912 ] final  153.07 input    0.00 | X-H torsion
[ 16479 10951 10950 10949 ] final   69.54 input   -0.00 | X-H torsion
[ 16484 11987 11986 11985 ] final -175.73 input    0.00 | X-H torsion
[ 16486 12059 12058 12057 ] final  -56.21 input   -0.00 | X-H torsion
[ 16490 11046 11045 11044 ] final  -49.13 input    0.00 | X-H torsion
[ 16500 6108 6107 6106 ] final  169.34 input    0.00 | X-H torsion
[ 16503 5921 5920 5919 ] final  167.40 input   -0.00 | X-H torsion
[ 16506 6059 6058 6057 ] final -113.84 input    0.00 | X-H torsion
[ 16510 5858 5857 5856 ] final  132.19 input    0.00 | X-H torsion
[ 16518 5993 5992 5991 ] final   49.16 input   -0.00 | X-H torsion
[ 16523 11156 11155 11154 ] final -147.72 input    0.00 | X-H torsion
[ 16528 11204 11203 11202 ] final -146.31 input    0.00 | X-H torsion
[ 16540 11096 11095 11094 ] final   -9.70 input   -0.00 | X-H torsion
[ 16544 10768 10767 10766 ] final  106.92 input   -0.00 | X-H torsion
[ 16552 11240 11239 11238 ] final  -95.63 input    0.00 | X-H torsion
[ 16558 11278 11277 11276 ] final  158.81 input   -0.00 | X-H torsion
[ 16562 11325 11324 11323 ] final -150.39 input   -0.00 | X-H torsion
[ 16566 9387 9386 9385 ] final -111.22 input   -0.00 | X-H torsion
[ 16570 9345 9344 9343 ] final   57.65 input    0.00 | X-H torsion
[ 16579 5720 5719 5718 ] final -164.45 input    0.00 | X-H torsion
[ 16592 1821 1820 1819 ] final -149.18 input    0.00 | X-H torsion
[ 16594 7834 7833 7832 ] final   98.23 input    0.00 | X-H torsion
[ 16600 1745 1744 1743 ] final -119.73 input    0.00 | X-H torsion
[ 16608 5620 5619 5618 ] final   -8.36 input   -0.00 | X-H torsion
[ 16610 7788 7787 7786 ] final  169.96 input   -0.00 | X-H torsion
[ 16613 1794 1793 1792 ] final  109.54 input   -0.00 | X-H torsion
[ 16622 9318 9317 9316 ] final   39.10 input   -0.00 | X-H torsion
[ 16627 9433 9432 9431 ] final   33.80 input    0.00 | X-H torsion
[ 16631 7667 7666 7665 ] final  -19.77 input   -0.00 | X-H torsion
[ 16635 7726 7725 7724 ] final  -16.68 input    0.00 | X-H torsion
[ 16637 10539 10538 10537 ] final  150.38 input   -0.00 | X-H torsion
[ 16643 1857 1856 1855 ] final  122.36 input    0.00 | X-H torsion
[ 16645 7565 7564 7563 ] final  -21.09 input    0.00 | X-H torsion
[ 16647 9289 9288 9287 ] final  -66.23 input    0.00 | X-H torsion
[ 16649 9236 9235 9234 ] final  140.62 input    0.00 | X-H torsion
[ 16655 3365 3364 3363 ] final  -95.74 input    0.00 | X-H torsion

> <Gold.Protein.ActiveResidues>
 LEU49   GLY50   THR51   GLY52   SER53   PHE54   VAL57   LEU82   LYS83   GLN84  
 HIS87   GLU127  PHE129  SER130  LEU132  ARG133  ARG134  ILE135  GLY136  ARG137 
 ARG165  ASP166  LEU167  LYS168  PRO169  GLU170  ASN171  LEU172  LEU173  ASP184 
 GLY186  PHE187  TPO197  LEU198  CYS199  GLY200  THR201  PRO202  GLU203  TYR204 
 LEU205  ILE209  ILE210  VAL226  LEU227  TYR229  GLU230  ALA233  GLY234  TYR235 
 PRO236  PRO237  PHE238  PHE239  ALA240  ASP241  GLN242  PRO243  ILE244  GLN245 
 ILE246  TYR247  GLU248  LYS249  ILE250  VAL251  SER252  LYS254  ARG256  PHE257 
 PRO258  SER259  PHE327  ASP328  TYR330 

> <Gold.Protein.RotatedAtoms>
    0.8431  -13.4551   20.5979 H   0  0  0  0  0  0  0  0  0  0  0  0  # atno 1801 bound_to 1791
   -1.0457  -14.7689   23.6787 H   0  0  0  0  0  0  0  0  0  0  0  0  # atno 1839 bound_to 1818
   -1.3063  -14.0394   28.0373 H   0  0  0  0  0  0  0  0  0  0  0  0  # atno 1845 bound_to 1824
   -1.8864  -16.3538   27.4946 H   0  0  0  0  0  0  0  0  0  0  0  0  # atno 1864 bound_to 1854
   -3.7233  -16.6076   29.7378 H   0  0  0  0  0  0  0  0  0  0  0  0  # atno 1892 bound_to 1879
   -5.8118  -15.5019   33.2794 H   0  0  0  0  0  0  0  0  0  0  0  0  # atno 1896 bound_to 1884
   -5.1802  -19.3535   30.0906 H   0  0  0  0  0  0  0  0  0  0  0  0  # atno 1947 bound_to 1922
   -7.1388  -24.0748   35.8529 H   0  0  0  0  0  0  0  0  0  0  0  0  # atno 3370 bound_to 3362
   -4.3415   -9.3762   12.9675 H   0  0  0  0  0  0  0  0  0  0  0  0  # atno 5632 bound_to 5617
   -9.2831   -8.4226   14.9812 H   0  0  0  0  0  0  0  0  0  0  0  0  # atno 5737 bound_to 5717
   -6.4622   -6.3013   16.2049 H   0  0  0  0  0  0  0  0  0  0  0  0  # atno 5778 bound_to 5767
   -4.7399   -5.9508   13.4974 H   0  0  0  0  0  0  0  0  0  0  0  0  # atno 5782 bound_to 5772
   -9.5473   -1.2699   14.0835 H   0  0  0  0  0  0  0  0  0  0  0  0  # atno 5955 bound_to 5918
   -6.5754   -0.4187   14.8461 H   0  0  0  0  0  0  0  0  0  0  0  0  # atno 6027 bound_to 5990
   -6.7882    1.3017   11.7052 H   0  0  0  0  0  0  0  0  0  0  0  0  # atno 6075 bound_to 6056
   -9.4276    2.1568   13.0481 H   0  0  0  0  0  0  0  0  0  0  0  0  # atno 6112 bound_to 6105
  -12.3836    1.7374   12.1495 H   0  0  0  0  0  0  0  0  0  0  0  0  # atno 6164 bound_to 6140
  -14.9969  -13.4962   18.9009 H   0  0  0  0  0  0  0  0  0  0  0  0  # atno 7745 bound_to 7723
  -11.0331  -12.6140   24.1433 H   0  0  0  0  0  0  0  0  0  0  0  0  # atno 7755 bound_to 7731
  -12.3174  -11.5667   24.1129 H   0  0  0  0  0  0  0  0  0  0  0  0  # atno 7756 bound_to 7731
  -12.5406  -13.1387   24.5908 H   0  0  0  0  0  0  0  0  0  0  0  0  # atno 7757 bound_to 7731
  -11.3333  -10.0981   18.3840 H   0  0  0  0  0  0  0  0  0  0  0  0  # atno 7846 bound_to 7831
   -9.5067  -12.5515   18.0635 H   0  0  0  0  0  0  0  0  0  0  0  0  # atno 7884 bound_to 7874
   -9.3070  -13.5847   15.3400 H   0  0  0  0  0  0  0  0  0  0  0  0  # atno 7924 bound_to 7916
  -13.6341  -22.0955   22.5444 H   0  0  0  0  0  0  0  0  0  0  0  0  # atno 8650 bound_to 8630
  -21.2021  -21.2036   30.4108 H   0  0  0  0  0  0  0  0  0  0  0  0  # atno 9263 bound_to 9233
  -19.8391  -19.7594   29.6348 H   0  0  0  0  0  0  0  0  0  0  0  0  # atno 9302 bound_to 9286
  -17.0291  -16.6122   27.9591 H   0  0  0  0  0  0  0  0  0  0  0  0  # atno 9325 bound_to 9315
  -16.7221  -14.1350   24.9202 H   0  0  0  0  0  0  0  0  0  0  0  0  # atno 9363 bound_to 9342
  -14.8294  -13.8149   25.1982 H   0  0  0  0  0  0  0  0  0  0  0  0  # atno 9369 bound_to 9348
  -17.7690   -8.0689   25.9988 H   0  0  0  0  0  0  0  0  0  0  0  0  # atno 9451 bound_to 9430
  -19.5074   -9.9583   24.4800 H   0  0  0  0  0  0  0  0  0  0  0  0  # atno 9511 bound_to 9481
  -17.7048   -6.9909   17.9269 H   0  0  0  0  0  0  0  0  0  0  0  0  # atno 9519 bound_to 9492
  -20.6700  -11.3935   24.7227 H   0  0  0  0  0  0  0  0  0  0  0  0  # atno 9566 bound_to 9536
  -23.5872    1.8872   17.3388 H   0  0  0  0  0  0  0  0  0  0  0  0  # atno 10737 bound_to 10719
  -17.3552   -0.1285   14.2917 H   0  0  0  0  0  0  0  0  0  0  0  0  # atno 10918 bound_to 10911
  -16.4179    1.4871   16.8300 H   0  0  0  0  0  0  0  0  0  0  0  0  # atno 10969 bound_to 10948
  -21.7718    4.8185   16.4702 H   0  0  0  0  0  0  0  0  0  0  0  0  # atno 10977 bound_to 10959
  -22.9728   -3.2630   22.2522 H   0  0  0  0  0  0  0  0  0  0  0  0  # atno 11113 bound_to 11093
  -21.6308   -2.1750   25.6269 H   0  0  0  0  0  0  0  0  0  0  0  0  # atno 11173 bound_to 11153
  -19.3873   -1.5355   28.4125 H   0  0  0  0  0  0  0  0  0  0  0  0  # atno 11211 bound_to 11201
  -18.1622    1.3673   31.6340 H   0  0  0  0  0  0  0  0  0  0  0  0  # atno 11249 bound_to 11237
  -17.5157   -1.4035   32.1065 H   0  0  0  0  0  0  0  0  0  0  0  0  # atno 11292 bound_to 11275
  -19.9626   -5.9866   33.2556 H   0  0  0  0  0  0  0  0  0  0  0  0  # atno 11385 bound_to 11366
  -22.7956   -3.8904   31.7272 H   0  0  0  0  0  0  0  0  0  0  0  0  # atno 11493 bound_to 11474
  -18.6325   -9.8398   31.6993 H   0  0  0  0  0  0  0  0  0  0  0  0  # atno 11568 bound_to 11550
  -24.6339    2.9803   27.5109 H   0  0  0  0  0  0  0  0  0  0  0  0  # atno 11673 bound_to 11649
  -25.5059    2.0762   28.5932 H   0  0  0  0  0  0  0  0  0  0  0  0  # atno 11674 bound_to 11649
  -23.9821    2.5967   28.9864 H   0  0  0  0  0  0  0  0  0  0  0  0  # atno 11675 bound_to 11649
   -7.8323    8.9062   25.7248 H   0  0  0  0  0  0  0  0  0  0  0  0  # atno 11686 bound_to 11631
   -8.8324    9.0720   27.0356 H   0  0  0  0  0  0  0  0  0  0  0  0  # atno 11687 bound_to 11631
   -9.1755    7.9454   25.8701 H   0  0  0  0  0  0  0  0  0  0  0  0  # atno 11688 bound_to 11631
  -12.3301   15.7663   22.3083 H   0  0  0  0  0  0  0  0  0  0  0  0  # atno 11826 bound_to 11799
  -17.1728   14.8223   24.9233 H   0  0  0  0  0  0  0  0  0  0  0  0  # atno 11911 bound_to 11856
  -18.3833   15.9526   24.9942 H   0  0  0  0  0  0  0  0  0  0  0  0  # atno 11912 bound_to 11856
  -17.1838   16.0930   23.8584 H   0  0  0  0  0  0  0  0  0  0  0  0  # atno 11913 bound_to 11856
  -28.6825    1.3761   20.6331 H   0  0  0  0  0  0  0  0  0  0  0  0  # atno 12008 bound_to 11984
  -27.7936    2.3706   17.2906 H   0  0  0  0  0  0  0  0  0  0  0  0  # atno 12076 bound_to 12056
  -25.1348    6.3281   12.7516 H   0  0  0  0  0  0  0  0  0  0  0  0  # atno 12159 bound_to 12148
    0.4711   -7.7781   17.6133 H   0  0  0  0  0  0  0  0  0  0  0  0  # atno 15411 bound_to 15403
   -1.5101  -10.6679   20.8640 H   0  0  0  0  0  0  0  0  0  0  0  0  # atno 15475 bound_to 15466
  -13.3771   15.5160   23.5285 LP  0  0  0  0  0  0  0  0  0  0  0  0  # atno 16466 bound_to 11799
  -13.1918   17.0125   22.9017 LP  0  0  0  0  0  0  0  0  0  0  0  0  # atno 16467 bound_to 11799
  -21.6291    5.7469   17.7992 LP  0  0  0  0  0  0  0  0  0  0  0  0  # atno 16468 bound_to 10959
  -22.5967    4.4316   17.8187 LP  0  0  0  0  0  0  0  0  0  0  0  0  # atno 16469 bound_to 10959
  -16.7464    3.2104   15.0245 LP  0  0  0  0  0  0  0  0  0  0  0  0  # atno 16472 bound_to 10886
  -17.9590    3.7268   13.9007 LP  0  0  0  0  0  0  0  0  0  0  0  0  # atno 16473 bound_to 10886
  -17.2327    0.0127   16.3453 LP  0  0  0  0  0  0  0  0  0  0  0  0  # atno 16474 bound_to 10948
  -21.2179    0.1149   20.6052 LP  0  0  0  0  0  0  0  0  0  0  0  0  # atno 16475 bound_to 11004
  -20.0785   -0.5420   21.7322 LP  0  0  0  0  0  0  0  0  0  0  0  0  # atno 16476 bound_to 11004
  -14.7407    1.4236   18.1380 LP  0  0  0  0  0  0  0  0  0  0  0  0  # atno 16477 bound_to 10914
  -13.7702    0.8918   16.8056 LP  0  0  0  0  0  0  0  0  0  0  0  0  # atno 16478 bound_to 10914
  -18.9807   -1.0553   16.8332 LP  0  0  0  0  0  0  0  0  0  0  0  0  # atno 16479 bound_to 10951
  -20.1027   -0.3498   17.9483 LP  0  0  0  0  0  0  0  0  0  0  0  0  # atno 16480 bound_to 10951
  -23.4005    1.2194   18.8109 LP  0  0  0  0  0  0  0  0  0  0  0  0  # atno 16482 bound_to 10719
  -24.8699    1.2353   18.0986 LP  0  0  0  0  0  0  0  0  0  0  0  0  # atno 16483 bound_to 10719
  -25.7409    1.7411   17.1160 LP  0  0  0  0  0  0  0  0  0  0  0  0  # atno 16484 bound_to 11987
  -26.2336    1.2633   18.7063 LP  0  0  0  0  0  0  0  0  0  0  0  0  # atno 16485 bound_to 11987
  -27.7348    5.4841   14.7525 LP  0  0  0  0  0  0  0  0  0  0  0  0  # atno 16486 bound_to 12059
  -26.5034    6.1270   15.7871 LP  0  0  0  0  0  0  0  0  0  0  0  0  # atno 16487 bound_to 12059
  -24.3707    0.0485   21.9262 LP  0  0  0  0  0  0  0  0  0  0  0  0  # atno 16490 bound_to 11046
  -25.0144   -1.1644   22.9820 LP  0  0  0  0  0  0  0  0  0  0  0  0  # atno 16491 bound_to 11046
  -28.2202    4.0051   16.8459 LP  0  0  0  0  0  0  0  0  0  0  0  0  # atno 16492 bound_to 12056
  -17.4759    1.6023   14.0573 LP  0  0  0  0  0  0  0  0  0  0  0  0  # atno 16493 bound_to 10911
  -13.8800    0.7443   13.4102 LP  0  0  0  0  0  0  0  0  0  0  0  0  # atno 16500 bound_to 6108
  -12.4979    1.0217   14.4167 LP  0  0  0  0  0  0  0  0  0  0  0  0  # atno 16501 bound_to 6108
  -13.0240    3.1151   11.2849 LP  0  0  0  0  0  0  0  0  0  0  0  0  # atno 16502 bound_to 6140
   -7.8249    2.5938   15.0941 LP  0  0  0  0  0  0  0  0  0  0  0  0  # atno 16503 bound_to 5921
   -9.2962    2.0270   15.8110 LP  0  0  0  0  0  0  0  0  0  0  0  0  # atno 16504 bound_to 5921
  -10.2360    2.1646   11.4953 LP  0  0  0  0  0  0  0  0  0  0  0  0  # atno 16505 bound_to 6105
   -9.7565    4.8329   11.7024 LP  0  0  0  0  0  0  0  0  0  0  0  0  # atno 16506 bound_to 6059
  -10.3190    4.2023   10.1905 LP  0  0  0  0  0  0  0  0  0  0  0  0  # atno 16507 bound_to 6059
  -10.5767    0.4984   14.2101 LP  0  0  0  0  0  0  0  0  0  0  0  0  # atno 16510 bound_to 5858
   -9.9390    0.2742   12.6154 LP  0  0  0  0  0  0  0  0  0  0  0  0  # atno 16511 bound_to 5858
   -8.8502   -2.4638   15.1502 LP  0  0  0  0  0  0  0  0  0  0  0  0  # atno 16516 bound_to 5918
   -8.0366    0.4827   14.4907 LP  0  0  0  0  0  0  0  0  0  0  0  0  # atno 16517 bound_to 5990
   -5.8565    3.6571   12.3855 LP  0  0  0  0  0  0  0  0  0  0  0  0  # atno 16518 bound_to 5993
   -7.5679    3.9191   12.3373 LP  0  0  0  0  0  0  0  0  0  0  0  0  # atno 16519 bound_to 5993
   -8.2832    1.0053   12.5467 LP  0  0  0  0  0  0  0  0  0  0  0  0  # atno 16520 bound_to 6056
  -20.6266    1.3751   27.7882 LP  0  0  0  0  0  0  0  0  0  0  0  0  # atno 16523 bound_to 11156
  -21.6593    0.3571   26.8410 LP  0  0  0  0  0  0  0  0  0  0  0  0  # atno 16524 bound_to 11156
  -18.8652   -0.2156   27.3834 LP  0  0  0  0  0  0  0  0  0  0  0  0  # atno 16525 bound_to 11201
  -16.2060   -1.2335   30.2692 LP  0  0  0  0  0  0  0  0  0  0  0  0  # atno 16528 bound_to 11204
  -16.6780   -0.6808   28.6970 LP  0  0  0  0  0  0  0  0  0  0  0  0  # atno 16529 bound_to 11204
  -17.6725    0.0623   30.5794 LP  0  0  0  0  0  0  0  0  0  0  0  0  # atno 16530 bound_to 11237
  -21.3735   -0.6310   24.8433 LP  0  0  0  0  0  0  0  0  0  0  0  0  # atno 16533 bound_to 11153
  -21.1426   -4.2945   24.3085 LP  0  0  0  0  0  0  0  0  0  0  0  0  # atno 16540 bound_to 11096
  -19.7844   -3.4348   24.9536 LP  0  0  0  0  0  0  0  0  0  0  0  0  # atno 16541 bound_to 11096
  -15.8185   -2.2099   14.5294 LP  0  0  0  0  0  0  0  0  0  0  0  0  # atno 16544 bound_to 10768
  -17.1844   -1.1610   14.3446 LP  0  0  0  0  0  0  0  0  0  0  0  0  # atno 16545 bound_to 10768
  -14.8688   -2.1079   31.8141 LP  0  0  0  0  0  0  0  0  0  0  0  0  # atno 16552 bound_to 11240
  -14.3796   -1.3586   33.2971 LP  0  0  0  0  0  0  0  0  0  0  0  0  # atno 16553 bound_to 11240
  -16.9958   -0.6444   33.5923 LP  0  0  0  0  0  0  0  0  0  0  0  0  # atno 16554 bound_to 11275
  -19.5392   -4.0767   31.7831 LP  0  0  0  0  0  0  0  0  0  0  0  0  # atno 16558 bound_to 11278
  -19.5966   -2.6487   32.7615 LP  0  0  0  0  0  0  0  0  0  0  0  0  # atno 16559 bound_to 11278
  -19.2135   -9.0480   26.1237 LP  0  0  0  0  0  0  0  0  0  0  0  0  # atno 16561 bound_to 9430
  -21.7376   -5.7850   32.1780 LP  0  0  0  0  0  0  0  0  0  0  0  0  # atno 16562 bound_to 11325
  -20.6612   -6.7628   31.2371 LP  0  0  0  0  0  0  0  0  0  0  0  0  # atno 16563 bound_to 11325
  -21.3382   -3.0151   31.3027 LP  0  0  0  0  0  0  0  0  0  0  0  0  # atno 16564 bound_to 11474
  -19.5343   -5.7425   34.9238 LP  0  0  0  0  0  0  0  0  0  0  0  0  # atno 16565 bound_to 11366
  -21.2337   -9.2003   26.0685 LP  0  0  0  0  0  0  0  0  0  0  0  0  # atno 16566 bound_to 9387
  -21.0417   -8.2922   27.5309 LP  0  0  0  0  0  0  0  0  0  0  0  0  # atno 16567 bound_to 9387
  -19.2957  -11.1310   30.9639 LP  0  0  0  0  0  0  0  0  0  0  0  0  # atno 16568 bound_to 11550
  -19.2421  -11.0546   32.5942 LP  0  0  0  0  0  0  0  0  0  0  0  0  # atno 16569 bound_to 11550
  -19.0567  -12.2365   25.3132 LP  0  0  0  0  0  0  0  0  0  0  0  0  # atno 16570 bound_to 9345
  -18.8123  -10.5826   24.8606 LP  0  0  0  0  0  0  0  0  0  0  0  0  # atno 16571 bound_to 9345
  -13.6664  -12.7845   24.7154 LP  0  0  0  0  0  0  0  0  0  0  0  0  # atno 16572 bound_to 9348
  -14.6944  -13.4299   23.6231 LP  0  0  0  0  0  0  0  0  0  0  0  0  # atno 16573 bound_to 9348
  -19.6514   -8.6091   23.3757 LP  0  0  0  0  0  0  0  0  0  0  0  0  # atno 16574 bound_to 9481
   -7.7482   -3.4234   15.4432 LP  0  0  0  0  0  0  0  0  0  0  0  0  # atno 16579 bound_to 5720
   -9.1913   -4.0084   16.2015 LP  0  0  0  0  0  0  0  0  0  0  0  0  # atno 16580 bound_to 5720
   -1.4957   -9.1270   21.3866 LP  0  0  0  0  0  0  0  0  0  0  0  0  # atno 16587 bound_to 15466
   -2.2056  -10.2907   22.2858 LP  0  0  0  0  0  0  0  0  0  0  0  0  # atno 16588 bound_to 15466
  -10.6714  -10.0923   16.7581 LP  0  0  0  0  0  0  0  0  0  0  0  0  # atno 16591 bound_to 7831
   -3.6626  -13.6665   27.2849 LP  0  0  0  0  0  0  0  0  0  0  0  0  # atno 16592 bound_to 1821
   -3.0139  -13.2898   25.7237 LP  0  0  0  0  0  0  0  0  0  0  0  0  # atno 16593 bound_to 1821
   -7.7995  -13.4108   18.7501 LP  0  0  0  0  0  0  0  0  0  0  0  0  # atno 16594 bound_to 7834
   -7.3395  -12.6962   17.2409 LP  0  0  0  0  0  0  0  0  0  0  0  0  # atno 16595 bound_to 7834
   -8.4963   -7.2847   13.9004 LP  0  0  0  0  0  0  0  0  0  0  0  0  # atno 16596 bound_to 5717
   -7.3966   -5.6749   14.8640 LP  0  0  0  0  0  0  0  0  0  0  0  0  # atno 16597 bound_to 5767
   -0.5508  -12.2450   19.9040 LP  0  0  0  0  0  0  0  0  0  0  0  0  # atno 16600 bound_to 1745
   -0.6449  -13.5089   18.7235 LP  0  0  0  0  0  0  0  0  0  0  0  0  # atno 16601 bound_to 1745
   -0.8357  -13.2777   24.5689 LP  0  0  0  0  0  0  0  0  0  0  0  0  # atno 16602 bound_to 1818
   -4.0393   -7.0124   14.5123 LP  0  0  0  0  0  0  0  0  0  0  0  0  # atno 16603 bound_to 5772
   -3.1264   -5.9238   13.7072 LP  0  0  0  0  0  0  0  0  0  0  0  0  # atno 16604 bound_to 5772
    2.0330   -8.5527   17.4865 LP  0  0  0  0  0  0  0  0  0  0  0  0  # atno 16605 bound_to 15403
    1.3067  -14.8993   21.4723 LP  0  0  0  0  0  0  0  0  0  0  0  0  # atno 16606 bound_to 1791
   -3.9231  -10.8424   13.8296 LP  0  0  0  0  0  0  0  0  0  0  0  0  # atno 16607 bound_to 5617
   -5.3390   -7.8606   13.6810 LP  0  0  0  0  0  0  0  0  0  0  0  0  # atno 16608 bound_to 5620
   -6.7325   -7.3054   12.8150 LP  0  0  0  0  0  0  0  0  0  0  0  0  # atno 16609 bound_to 5620
   -9.0496  -10.4575   15.8170 LP  0  0  0  0  0  0  0  0  0  0  0  0  # atno 16610 bound_to 7788
  -10.2832  -10.2477   14.6194 LP  0  0  0  0  0  0  0  0  0  0  0  0  # atno 16611 bound_to 7788
  -10.9459  -12.5079   17.0791 LP  0  0  0  0  0  0  0  0  0  0  0  0  # atno 16612 bound_to 7874
    1.1030  -15.9166   23.9457 LP  0  0  0  0  0  0  0  0  0  0  0  0  # atno 16613 bound_to 1794
   -0.1453  -16.6472   22.9928 LP  0  0  0  0  0  0  0  0  0  0  0  0  # atno 16614 bound_to 1794
    0.1979  -13.7430   28.5828 LP  0  0  0  0  0  0  0  0  0  0  0  0  # atno 16615 bound_to 1824
   -0.4338  -15.2445   28.6964 LP  0  0  0  0  0  0  0  0  0  0  0  0  # atno 16616 bound_to 1824
   -2.9130  -15.7440   26.2084 LP  0  0  0  0  0  0  0  0  0  0  0  0  # atno 16617 bound_to 1854
  -15.3397  -15.4810   27.3824 LP  0  0  0  0  0  0  0  0  0  0  0  0  # atno 16622 bound_to 9318
  -15.7903  -13.8891   27.8952 LP  0  0  0  0  0  0  0  0  0  0  0  0  # atno 16623 bound_to 9318
  -17.8331  -13.8467   26.2407 LP  0  0  0  0  0  0  0  0  0  0  0  0  # atno 16624 bound_to 9342
  -21.0429   -6.8501   22.7785 LP  0  0  0  0  0  0  0  0  0  0  0  0  # atno 16627 bound_to 9433
  -21.9051   -8.3502   22.8588 LP  0  0  0  0  0  0  0  0  0  0  0  0  # atno 16628 bound_to 9433
  -16.8301   -8.2060   17.2889 LP  0  0  0  0  0  0  0  0  0  0  0  0  # atno 16629 bound_to 9492
  -16.2229   -7.3156   18.5158 LP  0  0  0  0  0  0  0  0  0  0  0  0  # atno 16630 bound_to 9492
  -17.9709  -13.1040   19.4408 LP  0  0  0  0  0  0  0  0  0  0  0  0  # atno 16631 bound_to 7667
  -16.6583  -12.0924   19.9445 LP  0  0  0  0  0  0  0  0  0  0  0  0  # atno 16632 bound_to 7667
  -15.4962  -13.2263   17.2413 LP  0  0  0  0  0  0  0  0  0  0  0  0  # atno 16634 bound_to 7723
  -13.1421  -13.1028   17.0267 LP  0  0  0  0  0  0  0  0  0  0  0  0  # atno 16635 bound_to 7726
  -12.4915  -12.0137   15.8475 LP  0  0  0  0  0  0  0  0  0  0  0  0  # atno 16636 bound_to 7726
  -19.5973   -6.1641   16.3388 LP  0  0  0  0  0  0  0  0  0  0  0  0  # atno 16637 bound_to 10539
  -21.2011   -5.5669   16.6055 LP  0  0  0  0  0  0  0  0  0  0  0  0  # atno 16638 bound_to 10539
   -6.7671  -16.0263   32.0713 LP  0  0  0  0  0  0  0  0  0  0  0  0  # atno 16639 bound_to 1884
   -5.2601  -15.4861   31.7489 LP  0  0  0  0  0  0  0  0  0  0  0  0  # atno 16640 bound_to 1884
  -18.1417  -17.6542   27.0951 LP  0  0  0  0  0  0  0  0  0  0  0  0  # atno 16641 bound_to 9315
   -5.3845  -17.1350   29.8844 LP  0  0  0  0  0  0  0  0  0  0  0  0  # atno 16642 bound_to 1879
   -1.9266  -16.3390   30.4871 LP  0  0  0  0  0  0  0  0  0  0  0  0  # atno 16643 bound_to 1857
   -1.6998  -17.3655   29.1106 LP  0  0  0  0  0  0  0  0  0  0  0  0  # atno 16644 bound_to 1857
  -18.7116  -17.6766   23.3938 LP  0  0  0  0  0  0  0  0  0  0  0  0  # atno 16645 bound_to 7565
  -17.0330  -17.3964   23.0714 LP  0  0  0  0  0  0  0  0  0  0  0  0  # atno 16646 bound_to 7565
  -20.0581  -18.2723   26.3783 LP  0  0  0  0  0  0  0  0  0  0  0  0  # atno 16647 bound_to 9289
  -20.2849  -16.6584   26.9650 LP  0  0  0  0  0  0  0  0  0  0  0  0  # atno 16648 bound_to 9289
  -17.9809  -19.4747   30.9905 LP  0  0  0  0  0  0  0  0  0  0  0  0  # atno 16649 bound_to 9236
  -18.8650  -18.6406   32.2245 LP  0  0  0  0  0  0  0  0  0  0  0  0  # atno 16650 bound_to 9236
  -20.4231  -18.1428   29.3166 LP  0  0  0  0  0  0  0  0  0  0  0  0  # atno 16653 bound_to 9286
  -21.7230  -21.0373   32.0725 LP  0  0  0  0  0  0  0  0  0  0  0  0  # atno 16654 bound_to 9233
  -11.9678  -23.1075   34.5933 LP  0  0  0  0  0  0  0  0  0  0  0  0  # atno 16655 bound_to 3365
  -10.9066  -23.4553   33.2693 LP  0  0  0  0  0  0  0  0  0  0  0  0  # atno 16656 bound_to 3365
   -8.3601  -24.8238   36.8541 LP  0  0  0  0  0  0  0  0  0  0  0  0  # atno 16657 bound_to 3362
   -3.8090  -19.2420   31.1766 LP  0  0  0  0  0  0  0  0  0  0  0  0  # atno 16658 bound_to 1922

> <Gold.Score>
     Fitness  S(hb_ext) S(vdw_ext)  S(hb_int)    S(int)      intcor
     27.09       2.00      18.67       0.00      -0.57      -0.76

> <Gold.Goldscore.Fitness>
27.0917

> <Gold.Goldscore.Internal.Vdw>
-0.6495

> <Gold.Goldscore.Internal.Torsion>
-0.6831

> <Gold.Goldscore.External.Vdw>
18.6653

> <Gold.Goldscore.Internal.HBond>
0.0000

> <Gold.Goldscore.External.HBond>
2.0000

> <Gold.Goldscore.Internal.Correction>
-0.7595

> <Gold.Goldscore.Hbonds>
donor molecule, donor type, donor heavy atom, donor atom, acceptor molecule, acceptor atom, score
      L1  H    10    23       P1 10914  1.00

> <Gold.Goldscore.Internal.Vdw.Weighted>
-0.6495

> <Gold.Goldscore.Internal.Torsion.Weighted>
-0.6831

> <Gold.Goldscore.External.Vdw.Weighted>
25.6648

> <Gold.Goldscore.Internal.HBond.Weighted>
0.0000

> <Gold.Goldscore.External.HBond.Weighted>
2.0000

> <Gold.Goldscore.Internal.Correction.Weighted>
-0.7595

> <Gold.Rescore>
     Score     S(PLP)   S(hbond)     S(cho)   S(metal)  DE(clash)   DE(tors)     intcor
     24.34     -22.55       1.00       0.00       0.00       0.00       0.60       ----

> <Gold.PLP.Fitness>
24.3427

> <Gold.PLP.PLP>
-22.5473

> <Gold.PLP.part.hbond>
-3.0000

> <Gold.PLP.part.metal>
0.0000

> <Gold.PLP.part.buried>
-0.6549

> <Gold.PLP.part.nonpolar>
-20.1474

> <Gold.PLP.part.repulsive>
0.5150

> <Gold.PLP.ligand.clash>
0.0000

> <Gold.PLP.ligand.torsion>
0.6023

> <Gold.PLP.Chemscore.Hbond>
1.0000

> <Gold.PLP.Chemscore.CHOScore>
0.0000

> <Gold.PLP.Chemscore.Metal>
0.0000

> <Gold.Chemscore.Hbonds>
donor molecule, donor type, donor heavy atom, donor atom, acceptor molecule, acceptor atom, score
      L1  H    10    23       P1 10914  0.73

> <Gold.PLP.Chemscore.Internal.Correction>
   9.000000E+99

