#       Name:                CT1002167954
#       Creating user name   hitesit
#       Creation time:       Sun Apr 16 22:51:58 2023


#       File generated by GOLD software.
#

@<TRIPOS>MOLECULE
CT1002167954|ligand_prepared|mol2|1|dock5
    29    30     1
SMALL
NO_CHARGES


@<TRIPOS>ATOM
      1 C1          -4.6518 -16.0538  19.1388 C.3            1 RES1               0.0000
      2 C2          -5.3773 -17.3477  19.5609 C.ar           1 RES1               0.0000
      3 C3          -5.6924 -15.1901  18.4322 C.2            1 RES1               0.0000
      4 C4          -4.0979 -15.4383  20.4190 C.2            1 RES1               0.0000
      5 C5          -3.4688 -16.2882  18.1708 C.3            1 RES1               0.0000
      6 C6          -5.7127 -18.3126  18.6158 C.ar           1 RES1               0.0000
      7 C7          -5.7148 -17.5913  20.8896 C.ar           1 RES1               0.0000
      8 N8          -6.1727 -14.1040  19.1028 N.am           1 RES1               0.0000
      9 O9          -6.1143 -15.4799  17.3194 O.2            1 RES1               0.0000
     10 N10         -4.6098 -14.2341  20.8262 N.am           1 RES1               0.0000
     11 O11         -3.2347 -15.9931  21.0878 O.2            1 RES1               0.0000
     12 C12         -2.5413 -15.0910  18.0348 C.3            1 RES1               0.0000
     13 C13         -6.3594 -19.4802  18.9859 C.ar           1 RES1               0.0000
     14 C14         -6.3618 -18.7595  21.2575 C.ar           1 RES1               0.0000
     15 C15         -5.6437 -13.5539  20.2426 C.2            1 RES1               0.0000
     16 C16         -6.6840 -19.7046  20.3068 C.ar           1 RES1               0.0000
     17 O17         -6.0846 -12.5030  20.6990 O.2            1 RES1               0.0000
     18 H18         -2.8866 -17.1473  18.5262 H              1 RES1               0.0000
     19 H19         -3.8676 -16.5401  17.1803 H              1 RES1               0.0000
     20 H20         -5.4676 -18.1524  17.5712 H              1 RES1               0.0000
     21 H21         -5.4722 -16.8614  21.6544 H              1 RES1               0.0000
     22 H22         -7.0019 -13.6598  18.7215 H              1 RES1               0.0000
     23 H23         -4.1801 -13.8050  21.6396 H              1 RES1               0.0000
     24 H24         -1.7290 -15.3087  17.3445 H              1 RES1               0.0000
     25 H25         -3.0821 -14.2247  17.6593 H              1 RES1               0.0000
     26 H26         -2.1069 -14.8283  18.9972 H              1 RES1               0.0000
     27 H27         -6.6120 -20.2202  18.2337 H              1 RES1               0.0000
     28 H28         -6.6159 -18.9317  22.2982 H              1 RES1               0.0000
     29 H29         -7.1903 -20.6195  20.5965 H              1 RES1               0.0000
@<TRIPOS>BOND
    1    1    2 1     
    2    1    3 1     
    3    1    4 1     
    4    1    5 1     
    5    2    6 ar    
    6    2    7 ar    
    7    3    8 1     
    8    3    9 2     
    9    4   10 1     
   10    4   11 2     
   11    5   12 1     
   12    5   18 1     
   13    5   19 1     
   14    6   13 ar    
   15    6   20 1     
   16    7   14 ar    
   17    7   21 1     
   18    8   15 1     
   19    8   22 1     
   20   10   15 1     
   21   10   23 1     
   22   12   24 1     
   23   12   25 1     
   24   12   26 1     
   25   13   16 ar    
   26   13   27 1     
   27   14   16 ar    
   28   14   28 1     
   29   15   17 2     
   30   16   29 1     
@<TRIPOS>SUBSTRUCTURE
      1 RES1           1
@<TRIPOS>SET
DONOR_HYDROGENS      STATIC     ATOMS    <user>   **** ""
2 22 23
ATOM$RED        STATIC     ATOMS    COLORGROUP SYSTEM
2 22 23
@<TRIPOS>COMMENT
> <Gold.Version>
2022.3.0

> <Gold.Id.Protein>
unknown|3mvj_clean|pdb

> <Gold.Protein.RotatedTorsions>
[ 11826 11799 11798 11795 ] final  -85.83 input   60.01 | X-H torsion
[ 11911 11856 11855 11854 ] final  168.48 input   60.02 | X-H torsion
[ 10977 10959 10958 10956 ] final  162.97 input   60.00 | X-H torsion
[ 10969 10948 10949 10950 ] final   13.75 input   32.02 | X-H torsion
[ 10737 10719 10718 10716 ] final   26.58 input   60.01 | X-H torsion
[ 12076 12056 12057 12058 ] final    3.89 input   63.02 | X-H torsion
[ 10918 10911 10912 10913 ] final -152.11 input  -92.90 | X-H torsion
[ 6164 6140 6141 6142 ] final  -54.43 input   39.58 | X-H torsion
[ 6112 6105 6106 6107 ] final   -8.88 input  -69.34 | X-H torsion
[ 5955 5918 5919 5920 ] final  -35.37 input  125.26 | X-H torsion
[ 6027 5990 5991 5992 ] final   90.65 input  110.40 | X-H torsion
[ 6075 6056 6057 6058 ] final  118.19 input  107.04 | X-H torsion
[ 11686 11631 11630 11629 ] final  -52.50 input   60.02 | X-H torsion
[ 11211 11201 11202 11203 ] final -102.05 input   18.84 | X-H torsion
[ 11249 11237 11238 11239 ] final   26.92 input  111.29 | X-H torsion
[ 11173 11153 11154 11155 ] final -111.42 input   30.50 | X-H torsion
[ 11292 11275 11276 11277 ] final  -51.07 input   58.53 | X-H torsion
[ 9451 9430 9431 9432 ] final -169.51 input  110.06 | X-H torsion
[ 11493 11474 11475 11476 ] final   71.04 input  115.95 | X-H torsion
[ 11385 11366 11367 11368 ] final  -38.18 input  117.79 | X-H torsion
[ 11568 11550 11549 11547 ] final   79.75 input   59.97 | X-H torsion
[ 9369 9348 9346 9343 ] final   86.63 input   60.02 | X-H torsion
[ 9511 9481 9482 9483 ] final  -73.31 input   75.78 | X-H torsion
[ 15475 15466 15465 15463 ] final   89.31 input   60.00 | X-H torsion
[ 7755 7731 7730 7729 ] final  -12.88 input   60.02 | X-H torsion
[ 7846 7831 7832 7833 ] final -120.80 input  113.97 | X-H torsion
[ 5737 5717 5718 5719 ] final  146.41 input  137.93 | X-H torsion
[ 5778 5767 5768 5769 ] final -102.84 input  116.46 | X-H torsion
[ 1839 1818 1819 1820 ] final  -63.36 input   43.70 | X-H torsion
[ 5782 5772 5771 5768 ] final  127.55 input   59.97 | X-H torsion
[ 15411 15403 15404 15405 ] final  -39.89 input  102.24 | X-H torsion
[ 1801 1791 1792 1793 ] final  113.20 input  -10.55 | X-H torsion
[ 5632 5617 5618 5619 ] final  -91.34 input   93.34 | X-H torsion
[ 7884 7874 7875 7876 ] final -114.82 input   68.03 | X-H torsion
[ 1845 1824 1822 1819 ] final  -58.13 input   60.02 | X-H torsion
[ 1864 1854 1855 1856 ] final -170.40 input   57.50 | X-H torsion
[ 9363 9342 9343 9344 ] final  103.32 input   55.58 | X-H torsion
[ 9519 9492 9491 9489 ] final -134.11 input   60.02 | X-H torsion
[ 7745 7723 7724 7725 ] final   89.31 input   17.81 | X-H torsion
[ 1896 1884 1883 1880 ] final   64.28 input   60.01 | X-H torsion
[ 9325 9315 9316 9317 ] final  114.22 input  -36.21 | X-H torsion
[ 1892 1879 1880 1881 ] final  -36.94 input   98.21 | X-H torsion
[ 9302 9286 9287 9288 ] final  104.46 input   37.00 | X-H torsion
[ 9263 9233 9234 9235 ] final  145.86 input   95.32 | X-H torsion
[ 3370 3362 3363 3364 ] final  -65.35 input   97.92 | X-H torsion
[ 1947 1922 1923 1924 ] final -167.03 input  104.43 | X-H torsion
[ 12159 12148 12149 12150 ] final   25.81 input  116.04 | X-H torsion
[ 11673 11649 11648 11647 ] final  -83.67 input   59.99 | X-H torsion
[ 12008 11984 11985 11986 ] final   46.98 input   61.04 | X-H torsion
[ 11113 11093 11094 11095 ] final   82.93 input   39.50 | X-H torsion
[ 7924 7916 7917 7918 ] final  -40.31 input   66.66 | X-H torsion
[ 8650 8630 8631 8632 ] final -153.99 input   75.31 | X-H torsion
[ 9566 9536 9537 9538 ] final  105.09 input  103.50 | X-H torsion
[ 16472 10886 10885 10884 ] final  164.47 input    0.00 | X-H torsion
[ 16475 11004 11003 11002 ] final   11.24 input    0.00 | X-H torsion
[ 16477 10914 10913 10912 ] final -132.16 input    0.00 | X-H torsion
[ 16479 10951 10950 10949 ] final   87.25 input   -0.00 | X-H torsion
[ 16484 11987 11986 11985 ] final  122.40 input    0.00 | X-H torsion
[ 16486 12059 12058 12057 ] final -105.34 input   -0.00 | X-H torsion
[ 16490 11046 11045 11044 ] final  -58.99 input    0.00 | X-H torsion
[ 16500 6108 6107 6106 ] final  142.30 input    0.00 | X-H torsion
[ 16503 5921 5920 5919 ] final  -54.72 input   -0.00 | X-H torsion
[ 16506 6059 6058 6057 ] final   54.89 input    0.00 | X-H torsion
[ 16510 5858 5857 5856 ] final  -30.80 input    0.00 | X-H torsion
[ 16518 5993 5992 5991 ] final -156.03 input   -0.00 | X-H torsion
[ 16523 11156 11155 11154 ] final  133.63 input    0.00 | X-H torsion
[ 16528 11204 11203 11202 ] final -175.76 input    0.00 | X-H torsion
[ 16540 11096 11095 11094 ] final  -16.83 input   -0.00 | X-H torsion
[ 16544 10768 10767 10766 ] final    6.93 input   -0.00 | X-H torsion
[ 16552 11240 11239 11238 ] final -172.88 input    0.00 | X-H torsion
[ 16558 11278 11277 11276 ] final -126.45 input   -0.00 | X-H torsion
[ 16562 11325 11324 11323 ] final   51.96 input   -0.00 | X-H torsion
[ 16566 9387 9386 9385 ] final -139.33 input   -0.00 | X-H torsion
[ 16570 9345 9344 9343 ] final    4.31 input    0.00 | X-H torsion
[ 16579 5720 5719 5718 ] final  -15.64 input    0.00 | X-H torsion
[ 16592 1821 1820 1819 ] final   81.51 input    0.00 | X-H torsion
[ 16594 7834 7833 7832 ] final   -8.52 input    0.00 | X-H torsion
[ 16600 1745 1744 1743 ] final   98.45 input    0.00 | X-H torsion
[ 16608 5620 5619 5618 ] final   51.77 input   -0.00 | X-H torsion
[ 16610 7788 7787 7786 ] final -132.28 input   -0.00 | X-H torsion
[ 16613 1794 1793 1792 ] final   91.30 input   -0.00 | X-H torsion
[ 16622 9318 9317 9316 ] final   53.26 input   -0.00 | X-H torsion
[ 16627 9433 9432 9431 ] final  136.33 input    0.00 | X-H torsion
[ 16631 7667 7666 7665 ] final  -47.93 input   -0.00 | X-H torsion
[ 16635 7726 7725 7724 ] final -101.51 input    0.00 | X-H torsion
[ 16637 10539 10538 10537 ] final -104.25 input   -0.00 | X-H torsion
[ 16643 1857 1856 1855 ] final -171.81 input    0.00 | X-H torsion
[ 16645 7565 7564 7563 ] final  -50.81 input    0.00 | X-H torsion
[ 16647 9289 9288 9287 ] final  -50.91 input    0.00 | X-H torsion
[ 16649 9236 9235 9234 ] final   38.51 input    0.00 | X-H torsion
[ 16655 3365 3364 3363 ] final  -57.77 input    0.00 | X-H torsion

> <Gold.Protein.ActiveResidues>
 LEU49   GLY50   THR51   GLY52   SER53   PHE54   VAL57   LEU82   LYS83   GLN84  
 HIS87   GLU127  PHE129  SER130  LEU132  ARG133  ARG134  ILE135  GLY136  ARG137 
 ARG165  ASP166  LEU167  LYS168  PRO169  GLU170  ASN171  LEU172  LEU173  ASP184 
 GLY186  PHE187  TPO197  LEU198  CYS199  GLY200  THR201  PRO202  GLU203  TYR204 
 LEU205  ILE209  ILE210  VAL226  LEU227  TYR229  GLU230  ALA233  GLY234  TYR235 
 PRO236  PRO237  PHE238  PHE239  ALA240  ASP241  GLN242  PRO243  ILE244  GLN245 
 ILE246  TYR247  GLU248  LYS249  ILE250  VAL251  SER252  LYS254  ARG256  PHE257 
 PRO258  SER259  PHE327  ASP328  TYR330 

> <Gold.Protein.RotatedAtoms>
    0.5730  -14.6069   20.4404 H   0  0  0  0  0  0  0  0  0  0  0  0  # atno 1801 bound_to 1791
   -1.5648  -14.5375   23.7835 H   0  0  0  0  0  0  0  0  0  0  0  0  # atno 1839 bound_to 1818
   -0.9912  -13.6269   28.0641 H   0  0  0  0  0  0  0  0  0  0  0  0  # atno 1845 bound_to 1824
   -2.9386  -15.5927   26.2627 H   0  0  0  0  0  0  0  0  0  0  0  0  # atno 1864 bound_to 1854
   -3.9448  -17.4078   29.4693 H   0  0  0  0  0  0  0  0  0  0  0  0  # atno 1892 bound_to 1879
   -6.2282  -15.8941   31.5050 H   0  0  0  0  0  0  0  0  0  0  0  0  # atno 1896 bound_to 1884
   -5.1635  -19.5710   31.1532 H   0  0  0  0  0  0  0  0  0  0  0  0  # atno 1947 bound_to 1922
   -8.3355  -24.7059   36.9799 H   0  0  0  0  0  0  0  0  0  0  0  0  # atno 3370 bound_to 3362
   -4.3056  -10.6066   12.6784 H   0  0  0  0  0  0  0  0  0  0  0  0  # atno 5632 bound_to 5617
   -9.0164   -8.4910   15.0325 H   0  0  0  0  0  0  0  0  0  0  0  0  # atno 5737 bound_to 5717
   -7.3002   -5.4939   16.1711 H   0  0  0  0  0  0  0  0  0  0  0  0  # atno 5778 bound_to 5767
   -3.2165   -5.8240   13.6107 H   0  0  0  0  0  0  0  0  0  0  0  0  # atno 5782 bound_to 5772
   -9.3256   -1.2582   14.0034 H   0  0  0  0  0  0  0  0  0  0  0  0  # atno 5955 bound_to 5918
   -7.0545   -0.5814   14.0792 H   0  0  0  0  0  0  0  0  0  0  0  0  # atno 6027 bound_to 5990
   -7.7630    0.3965   11.7600 H   0  0  0  0  0  0  0  0  0  0  0  0  # atno 6075 bound_to 6056
  -10.3122    1.4362   12.0511 H   0  0  0  0  0  0  0  0  0  0  0  0  # atno 6112 bound_to 6105
  -12.1486    1.7951   11.4645 H   0  0  0  0  0  0  0  0  0  0  0  0  # atno 6164 bound_to 6140
  -14.6354  -13.5743   18.6665 H   0  0  0  0  0  0  0  0  0  0  0  0  # atno 7745 bound_to 7723
  -12.2739  -11.5532   24.1013 H   0  0  0  0  0  0  0  0  0  0  0  0  # atno 7755 bound_to 7731
  -12.5767  -13.1081   24.5889 H   0  0  0  0  0  0  0  0  0  0  0  0  # atno 7756 bound_to 7731
  -11.0401  -12.6590   24.1570 H   0  0  0  0  0  0  0  0  0  0  0  0  # atno 7757 bound_to 7731
  -10.4950   -9.4715   17.1375 H   0  0  0  0  0  0  0  0  0  0  0  0  # atno 7846 bound_to 7831
   -9.3896  -12.4846   17.8139 H   0  0  0  0  0  0  0  0  0  0  0  0  # atno 7884 bound_to 7874
   -9.3517  -13.8604   15.3658 H   0  0  0  0  0  0  0  0  0  0  0  0  # atno 7924 bound_to 7916
  -13.0165  -22.5706   24.0636 H   0  0  0  0  0  0  0  0  0  0  0  0  # atno 8650 bound_to 8630
  -21.9607  -20.9951   31.9809 H   0  0  0  0  0  0  0  0  0  0  0  0  # atno 9263 bound_to 9233
  -20.1137  -19.7363   29.0863 H   0  0  0  0  0  0  0  0  0  0  0  0  # atno 9302 bound_to 9286
  -18.4677  -16.9998   27.6486 H   0  0  0  0  0  0  0  0  0  0  0  0  # atno 9325 bound_to 9315
  -17.1105  -13.8992   24.7244 H   0  0  0  0  0  0  0  0  0  0  0  0  # atno 9363 bound_to 9342
  -15.0358  -13.7669   23.9748 H   0  0  0  0  0  0  0  0  0  0  0  0  # atno 9369 bound_to 9348
  -18.2851   -7.8315   26.5120 H   0  0  0  0  0  0  0  0  0  0  0  0  # atno 9451 bound_to 9430
  -20.3510   -8.8373   23.9871 H   0  0  0  0  0  0  0  0  0  0  0  0  # atno 9511 bound_to 9481
  -17.7661   -7.3618   17.5328 H   0  0  0  0  0  0  0  0  0  0  0  0  # atno 9519 bound_to 9492
  -21.2372  -10.6486   25.0829 H   0  0  0  0  0  0  0  0  0  0  0  0  # atno 9566 bound_to 9536
  -23.0849    1.7383   17.8785 H   0  0  0  0  0  0  0  0  0  0  0  0  # atno 10737 bound_to 10719
  -17.0191    0.4206   13.4474 H   0  0  0  0  0  0  0  0  0  0  0  0  # atno 10918 bound_to 10911
  -17.6377    0.3864   16.4043 H   0  0  0  0  0  0  0  0  0  0  0  0  # atno 10969 bound_to 10948
  -21.4043    5.6838   17.1287 H   0  0  0  0  0  0  0  0  0  0  0  0  # atno 10977 bound_to 10959
  -22.6246   -3.3078   22.2810 H   0  0  0  0  0  0  0  0  0  0  0  0  # atno 11113 bound_to 11093
  -21.5562   -2.2399   25.4867 H   0  0  0  0  0  0  0  0  0  0  0  0  # atno 11173 bound_to 11153
  -18.9120   -0.1527   27.3826 H   0  0  0  0  0  0  0  0  0  0  0  0  # atno 11211 bound_to 11201
  -18.2636    0.0629   31.5962 H   0  0  0  0  0  0  0  0  0  0  0  0  # atno 11249 bound_to 11237
  -17.0692   -1.4036   32.0832 H   0  0  0  0  0  0  0  0  0  0  0  0  # atno 11292 bound_to 11275
  -19.9746   -5.6652   33.2741 H   0  0  0  0  0  0  0  0  0  0  0  0  # atno 11385 bound_to 11366
  -21.7743   -4.2578   31.7531 H   0  0  0  0  0  0  0  0  0  0  0  0  # atno 11493 bound_to 11474
  -18.6323   -9.8396   31.7045 H   0  0  0  0  0  0  0  0  0  0  0  0  # atno 11568 bound_to 11550
  -25.5491    2.3539   27.9520 H   0  0  0  0  0  0  0  0  0  0  0  0  # atno 11673 bound_to 11649
  -24.5179    2.2293   29.2445 H   0  0  0  0  0  0  0  0  0  0  0  0  # atno 11674 bound_to 11649
  -24.0549    3.0704   27.8932 H   0  0  0  0  0  0  0  0  0  0  0  0  # atno 11675 bound_to 11649
   -8.1491    8.4190   25.4034 H   0  0  0  0  0  0  0  0  0  0  0  0  # atno 11686 bound_to 11631
   -8.2754    9.3290   26.7825 H   0  0  0  0  0  0  0  0  0  0  0  0  # atno 11687 bound_to 11631
   -9.4159    8.1754   26.4447 H   0  0  0  0  0  0  0  0  0  0  0  0  # atno 11688 bound_to 11631
  -12.3449   15.6771   22.3498 H   0  0  0  0  0  0  0  0  0  0  0  0  # atno 11826 bound_to 11799
  -18.2191   16.3329   24.5344 H   0  0  0  0  0  0  0  0  0  0  0  0  # atno 11911 bound_to 11856
  -16.8390   15.5956   23.9868 H   0  0  0  0  0  0  0  0  0  0  0  0  # atno 11912 bound_to 11856
  -17.6819   14.9396   25.2547 H   0  0  0  0  0  0  0  0  0  0  0  0  # atno 11913 bound_to 11856
  -27.7008    0.8389   19.8574 H   0  0  0  0  0  0  0  0  0  0  0  0  # atno 12008 bound_to 11984
  -27.8594    4.0651   17.0976 H   0  0  0  0  0  0  0  0  0  0  0  0  # atno 12076 bound_to 12056
  -24.2451    6.9919   12.4349 H   0  0  0  0  0  0  0  0  0  0  0  0  # atno 12159 bound_to 12148
    2.0996   -8.2631   17.2794 H   0  0  0  0  0  0  0  0  0  0  0  0  # atno 15411 bound_to 15403
   -1.9485  -10.9391   21.5805 H   0  0  0  0  0  0  0  0  0  0  0  0  # atno 15475 bound_to 15466
  -13.4279   15.5958   23.5615 LP  0  0  0  0  0  0  0  0  0  0  0  0  # atno 16466 bound_to 11799
  -13.1260   17.0225   22.8267 LP  0  0  0  0  0  0  0  0  0  0  0  0  # atno 16467 bound_to 11799
  -22.3686    4.9685   18.2273 LP  0  0  0  0  0  0  0  0  0  0  0  0  # atno 16468 bound_to 10959
  -22.2273    4.3384   16.7274 LP  0  0  0  0  0  0  0  0  0  0  0  0  # atno 16469 bound_to 10959
  -16.6682    3.2067   14.9240 LP  0  0  0  0  0  0  0  0  0  0  0  0  # atno 16472 bound_to 10886
  -18.0372    3.7304   14.0012 LP  0  0  0  0  0  0  0  0  0  0  0  0  # atno 16473 bound_to 10886
  -16.0616    1.0694   16.7539 LP  0  0  0  0  0  0  0  0  0  0  0  0  # atno 16474 bound_to 10948
  -19.8108   -0.1414   20.9599 LP  0  0  0  0  0  0  0  0  0  0  0  0  # atno 16475 bound_to 11004
  -21.4856   -0.2857   21.3775 LP  0  0  0  0  0  0  0  0  0  0  0  0  # atno 16476 bound_to 11004
  -14.4202    0.4432   17.9327 LP  0  0  0  0  0  0  0  0  0  0  0  0  # atno 16477 bound_to 10914
  -14.0907    1.8722   17.0109 LP  0  0  0  0  0  0  0  0  0  0  0  0  # atno 16478 bound_to 10914
  -19.0791   -1.2790   16.9395 LP  0  0  0  0  0  0  0  0  0  0  0  0  # atno 16479 bound_to 10951
  -20.0043   -0.1260   17.8420 LP  0  0  0  0  0  0  0  0  0  0  0  0  # atno 16480 bound_to 10951
  -24.1242    1.0142   18.9000 LP  0  0  0  0  0  0  0  0  0  0  0  0  # atno 16482 bound_to 10719
  -24.6520    1.5905   17.4661 LP  0  0  0  0  0  0  0  0  0  0  0  0  # atno 16483 bound_to 10719
  -26.2435    1.0169   17.2412 LP  0  0  0  0  0  0  0  0  0  0  0  0  # atno 16484 bound_to 11987
  -25.7311    1.9876   18.5811 LP  0  0  0  0  0  0  0  0  0  0  0  0  # atno 16485 bound_to 11987
  -27.2121    5.8414   14.4095 LP  0  0  0  0  0  0  0  0  0  0  0  0  # atno 16486 bound_to 12059
  -27.0262    5.7697   16.1301 LP  0  0  0  0  0  0  0  0  0  0  0  0  # atno 16487 bound_to 12059
  -24.2852    0.0858   22.0422 LP  0  0  0  0  0  0  0  0  0  0  0  0  # atno 16490 bound_to 11046
  -25.0999   -1.2017   22.8660 LP  0  0  0  0  0  0  0  0  0  0  0  0  # atno 16491 bound_to 11046
  -28.1557    2.3448   17.0351 LP  0  0  0  0  0  0  0  0  0  0  0  0  # atno 16492 bound_to 12056
  -17.8003    1.0722   14.8724 LP  0  0  0  0  0  0  0  0  0  0  0  0  # atno 16493 bound_to 10911
  -13.9977    1.0477   13.6510 LP  0  0  0  0  0  0  0  0  0  0  0  0  # atno 16500 bound_to 6108
  -12.3802    0.7183   14.1758 LP  0  0  0  0  0  0  0  0  0  0  0  0  # atno 16501 bound_to 6108
  -13.2531    3.0588   11.9528 LP  0  0  0  0  0  0  0  0  0  0  0  0  # atno 16502 bound_to 6140
   -9.3579    2.0914   15.1950 LP  0  0  0  0  0  0  0  0  0  0  0  0  # atno 16503 bound_to 5921
   -7.7632    2.5294   15.7101 LP  0  0  0  0  0  0  0  0  0  0  0  0  # atno 16504 bound_to 5921
   -9.3808    2.8612   12.4592 LP  0  0  0  0  0  0  0  0  0  0  0  0  # atno 16505 bound_to 6105
  -10.1586    4.2264   10.1399 LP  0  0  0  0  0  0  0  0  0  0  0  0  # atno 16506 bound_to 6059
   -9.9170    4.8088   11.7531 LP  0  0  0  0  0  0  0  0  0  0  0  0  # atno 16507 bound_to 6059
  -10.1771    0.1896   12.5732 LP  0  0  0  0  0  0  0  0  0  0  0  0  # atno 16510 bound_to 5858
  -10.3386    0.5830   14.2522 LP  0  0  0  0  0  0  0  0  0  0  0  0  # atno 16511 bound_to 5858
   -9.0677   -2.4753   15.2287 LP  0  0  0  0  0  0  0  0  0  0  0  0  # atno 16516 bound_to 5918
   -7.5779    0.6385   15.2248 LP  0  0  0  0  0  0  0  0  0  0  0  0  # atno 16517 bound_to 5990
   -7.4835    3.8595   11.9741 LP  0  0  0  0  0  0  0  0  0  0  0  0  # atno 16518 bound_to 5993
   -5.9409    3.7167   12.7488 LP  0  0  0  0  0  0  0  0  0  0  0  0  # atno 16519 bound_to 5993
   -7.3093    1.9097   12.4919 LP  0  0  0  0  0  0  0  0  0  0  0  0  # atno 16520 bound_to 6056
  -21.3596    0.6280   28.1186 LP  0  0  0  0  0  0  0  0  0  0  0  0  # atno 16523 bound_to 11156
  -20.9263    1.1041   26.5106 LP  0  0  0  0  0  0  0  0  0  0  0  0  # atno 16524 bound_to 11156
  -19.3211   -1.5418   28.3710 LP  0  0  0  0  0  0  0  0  0  0  0  0  # atno 16525 bound_to 11201
  -15.9591   -0.8762   30.1975 LP  0  0  0  0  0  0  0  0  0  0  0  0  # atno 16528 bound_to 11204
  -16.9248   -1.0381   28.7688 LP  0  0  0  0  0  0  0  0  0  0  0  0  # atno 16529 bound_to 11204
  -17.5736    1.3351   30.6163 LP  0  0  0  0  0  0  0  0  0  0  0  0  # atno 16530 bound_to 11237
  -21.4457   -0.5682   24.9790 LP  0  0  0  0  0  0  0  0  0  0  0  0  # atno 16533 bound_to 11153
  -21.1649   -4.3220   24.4101 LP  0  0  0  0  0  0  0  0  0  0  0  0  # atno 16540 bound_to 11096
  -19.7620   -3.4072   24.8519 LP  0  0  0  0  0  0  0  0  0  0  0  0  # atno 16541 bound_to 11096
  -16.6921   -1.5390   15.2690 LP  0  0  0  0  0  0  0  0  0  0  0  0  # atno 16544 bound_to 10768
  -16.3108   -1.8318   13.6050 LP  0  0  0  0  0  0  0  0  0  0  0  0  # atno 16545 bound_to 10768
  -15.0165   -2.4560   32.8270 LP  0  0  0  0  0  0  0  0  0  0  0  0  # atno 16552 bound_to 11240
  -14.2318   -1.0104   32.2843 LP  0  0  0  0  0  0  0  0  0  0  0  0  # atno 16553 bound_to 11240
  -17.4314   -0.6443   33.6151 LP  0  0  0  0  0  0  0  0  0  0  0  0  # atno 16554 bound_to 11275
  -19.9888   -3.9677   32.7270 LP  0  0  0  0  0  0  0  0  0  0  0  0  # atno 16558 bound_to 11278
  -19.1470   -2.7577   31.8176 LP  0  0  0  0  0  0  0  0  0  0  0  0  # atno 16559 bound_to 11278
  -18.7130   -9.2782   25.6261 LP  0  0  0  0  0  0  0  0  0  0  0  0  # atno 16561 bound_to 9430
  -20.8115   -6.9955   31.4267 LP  0  0  0  0  0  0  0  0  0  0  0  0  # atno 16562 bound_to 11325
  -21.5873   -5.5523   31.9884 LP  0  0  0  0  0  0  0  0  0  0  0  0  # atno 16563 bound_to 11325
  -22.3198   -2.6619   31.2779 LP  0  0  0  0  0  0  0  0  0  0  0  0  # atno 16564 bound_to 11474
  -19.5223   -6.0653   34.9054 LP  0  0  0  0  0  0  0  0  0  0  0  0  # atno 16565 bound_to 11366
  -21.2094   -8.8010   25.9384 LP  0  0  0  0  0  0  0  0  0  0  0  0  # atno 16566 bound_to 9387
  -21.0659   -8.6915   27.6610 LP  0  0  0  0  0  0  0  0  0  0  0  0  # atno 16567 bound_to 9387
  -19.2938  -11.1272   30.9610 LP  0  0  0  0  0  0  0  0  0  0  0  0  # atno 16568 bound_to 11550
  -19.2442  -11.0588   32.5918 LP  0  0  0  0  0  0  0  0  0  0  0  0  # atno 16569 bound_to 11550
  -18.5994  -12.1070   24.6980 LP  0  0  0  0  0  0  0  0  0  0  0  0  # atno 16570 bound_to 9345
  -19.2695  -10.7120   25.4758 LP  0  0  0  0  0  0  0  0  0  0  0  0  # atno 16571 bound_to 9345
  -14.3873  -13.5014   25.4434 LP  0  0  0  0  0  0  0  0  0  0  0  0  # atno 16572 bound_to 9348
  -13.7657  -12.7613   24.1271 LP  0  0  0  0  0  0  0  0  0  0  0  0  # atno 16573 bound_to 9348
  -18.8330   -9.6966   23.8538 LP  0  0  0  0  0  0  0  0  0  0  0  0  # atno 16574 bound_to 9481
   -9.2807   -4.0098   15.7445 LP  0  0  0  0  0  0  0  0  0  0  0  0  # atno 16579 bound_to 5720
   -7.6588   -3.4220   15.9002 LP  0  0  0  0  0  0  0  0  0  0  0  0  # atno 16580 bound_to 5720
   -1.2695   -9.7116   20.7561 LP  0  0  0  0  0  0  0  0  0  0  0  0  # atno 16587 bound_to 15466
   -1.9902   -9.4329   22.1947 LP  0  0  0  0  0  0  0  0  0  0  0  0  # atno 16588 bound_to 15466
  -11.4692  -10.6886   17.9444 LP  0  0  0  0  0  0  0  0  0  0  0  0  # atno 16591 bound_to 7831
   -3.6395  -13.6878   25.7199 LP  0  0  0  0  0  0  0  0  0  0  0  0  # atno 16592 bound_to 1821
   -3.0371  -13.2686   27.2887 LP  0  0  0  0  0  0  0  0  0  0  0  0  # atno 16593 bound_to 1821
   -7.2232  -12.2815   18.1802 LP  0  0  0  0  0  0  0  0  0  0  0  0  # atno 16594 bound_to 7834
   -7.9158  -13.8255   17.8108 LP  0  0  0  0  0  0  0  0  0  0  0  0  # atno 16595 bound_to 7834
   -8.7499   -7.2196   13.8517 LP  0  0  0  0  0  0  0  0  0  0  0  0  # atno 16596 bound_to 5717
   -6.5848   -6.4569   14.8967 LP  0  0  0  0  0  0  0  0  0  0  0  0  # atno 16597 bound_to 5767
   -0.9792  -13.6395   19.1617 LP  0  0  0  0  0  0  0  0  0  0  0  0  # atno 16600 bound_to 1745
   -0.2165  -12.1144   19.4658 LP  0  0  0  0  0  0  0  0  0  0  0  0  # atno 16601 bound_to 1745
   -0.3313  -13.5026   24.4672 LP  0  0  0  0  0  0  0  0  0  0  0  0  # atno 16602 bound_to 1818
   -4.8255   -6.0653   13.5807 LP  0  0  0  0  0  0  0  0  0  0  0  0  # atno 16603 bound_to 5772
   -3.8745   -6.9987   14.5246 LP  0  0  0  0  0  0  0  0  0  0  0  0  # atno 16604 bound_to 5772
    0.4448   -8.0797   17.8121 LP  0  0  0  0  0  0  0  0  0  0  0  0  # atno 16605 bound_to 15403
    1.5677  -13.7862   21.6245 LP  0  0  0  0  0  0  0  0  0  0  0  0  # atno 16606 bound_to 1791
   -3.9576   -9.6565   14.1082 LP  0  0  0  0  0  0  0  0  0  0  0  0  # atno 16607 bound_to 5617
   -5.3693   -7.9289   12.8166 LP  0  0  0  0  0  0  0  0  0  0  0  0  # atno 16608 bound_to 5620
   -6.7023   -7.2371   13.6795 LP  0  0  0  0  0  0  0  0  0  0  0  0  # atno 16609 bound_to 5620
   -9.4830  -11.1260   15.5620 LP  0  0  0  0  0  0  0  0  0  0  0  0  # atno 16610 bound_to 7788
   -9.8498   -9.5792   14.8743 LP  0  0  0  0  0  0  0  0  0  0  0  0  # atno 16611 bound_to 7788
  -11.0617  -12.5741   17.3258 LP  0  0  0  0  0  0  0  0  0  0  0  0  # atno 16612 bound_to 7874
    1.2008  -15.8604   23.6953 LP  0  0  0  0  0  0  0  0  0  0  0  0  # atno 16613 bound_to 1794
   -0.2430  -16.7035   23.2431 LP  0  0  0  0  0  0  0  0  0  0  0  0  # atno 16614 bound_to 1794
    0.3585  -14.2072   28.7638 LP  0  0  0  0  0  0  0  0  0  0  0  0  # atno 16615 bound_to 1824
   -0.9117  -15.1958   28.4885 LP  0  0  0  0  0  0  0  0  0  0  0  0  # atno 16616 bound_to 1824
   -1.9103  -16.4694   27.3825 LP  0  0  0  0  0  0  0  0  0  0  0  0  # atno 16617 bound_to 1854
  -15.2070  -15.3735   27.2543 LP  0  0  0  0  0  0  0  0  0  0  0  0  # atno 16622 bound_to 9318
  -15.9230  -13.9966   28.0233 LP  0  0  0  0  0  0  0  0  0  0  0  0  # atno 16623 bound_to 9318
  -17.4567  -14.0752   26.4304 LP  0  0  0  0  0  0  0  0  0  0  0  0  # atno 16624 bound_to 9342
  -21.2051   -8.0098   22.1046 LP  0  0  0  0  0  0  0  0  0  0  0  0  # atno 16627 bound_to 9433
  -21.7428   -7.1904   23.5327 LP  0  0  0  0  0  0  0  0  0  0  0  0  # atno 16628 bound_to 9433
  -16.3679   -8.1929   17.5836 LP  0  0  0  0  0  0  0  0  0  0  0  0  # atno 16629 bound_to 9492
  -16.6234   -6.9553   18.6179 LP  0  0  0  0  0  0  0  0  0  0  0  0  # atno 16630 bound_to 9492
  -17.9969  -12.7684   19.1872 LP  0  0  0  0  0  0  0  0  0  0  0  0  # atno 16631 bound_to 7667
  -16.6323  -12.4279   20.1981 LP  0  0  0  0  0  0  0  0  0  0  0  0  # atno 16632 bound_to 7667
  -15.8418  -13.1516   17.4654 LP  0  0  0  0  0  0  0  0  0  0  0  0  # atno 16634 bound_to 7723
  -12.1456  -12.4948   16.9806 LP  0  0  0  0  0  0  0  0  0  0  0  0  # atno 16635 bound_to 7726
  -13.4881  -12.6218   15.8937 LP  0  0  0  0  0  0  0  0  0  0  0  0  # atno 16636 bound_to 7726
  -20.7655   -5.8334   15.6881 LP  0  0  0  0  0  0  0  0  0  0  0  0  # atno 16637 bound_to 10539
  -20.0329   -5.8976   17.2562 LP  0  0  0  0  0  0  0  0  0  0  0  0  # atno 16638 bound_to 10539
   -5.0823  -15.3187   32.5065 LP  0  0  0  0  0  0  0  0  0  0  0  0  # atno 16639 bound_to 1884
   -6.5252  -15.7986   33.1018 LP  0  0  0  0  0  0  0  0  0  0  0  0  # atno 16640 bound_to 1884
  -16.7571  -17.2811   27.3939 LP  0  0  0  0  0  0  0  0  0  0  0  0  # atno 16641 bound_to 9315
   -5.1694  -16.3577   30.1452 LP  0  0  0  0  0  0  0  0  0  0  0  0  # atno 16642 bound_to 1879
   -2.0152  -17.2752   30.5271 LP  0  0  0  0  0  0  0  0  0  0  0  0  # atno 16643 bound_to 1857
   -1.6111  -16.4293   29.0706 LP  0  0  0  0  0  0  0  0  0  0  0  0  # atno 16644 bound_to 1857
  -18.6943  -17.2639   23.2305 LP  0  0  0  0  0  0  0  0  0  0  0  0  # atno 16645 bound_to 7565
  -17.0503  -17.8091   23.2346 LP  0  0  0  0  0  0  0  0  0  0  0  0  # atno 16646 bound_to 7565
  -20.1662  -18.3260   26.5751 LP  0  0  0  0  0  0  0  0  0  0  0  0  # atno 16647 bound_to 9289
  -20.1769  -16.6047   26.7682 LP  0  0  0  0  0  0  0  0  0  0  0  0  # atno 16648 bound_to 9289
  -18.7869  -19.7113   32.0437 LP  0  0  0  0  0  0  0  0  0  0  0  0  # atno 16649 bound_to 9236
  -18.0590  -18.4040   31.1713 LP  0  0  0  0  0  0  0  0  0  0  0  0  # atno 16650 bound_to 9236
  -20.1550  -18.1654   29.8520 LP  0  0  0  0  0  0  0  0  0  0  0  0  # atno 16653 bound_to 9286
  -20.9867  -21.2396   30.5485 LP  0  0  0  0  0  0  0  0  0  0  0  0  # atno 16654 bound_to 9233
  -11.6147  -22.6740   34.5226 LP  0  0  0  0  0  0  0  0  0  0  0  0  # atno 16655 bound_to 3365
  -11.2597  -23.8887   33.3400 LP  0  0  0  0  0  0  0  0  0  0  0  0  # atno 16656 bound_to 3365
   -7.1927  -24.2082   35.7547 LP  0  0  0  0  0  0  0  0  0  0  0  0  # atno 16657 bound_to 3362
   -3.8251  -19.0335   30.1574 LP  0  0  0  0  0  0  0  0  0  0  0  0  # atno 16658 bound_to 1922

> <Gold.Score>
     Fitness  S(hb_ext) S(vdw_ext)  S(hb_int)    S(int)      intcor
     32.11       2.03      23.09       0.00      -1.66      -0.76

> <Gold.Goldscore.Fitness>
32.1136

> <Gold.Goldscore.Internal.Vdw>
-1.7222

> <Gold.Goldscore.Internal.Torsion>
-0.7001

> <Gold.Goldscore.External.Vdw>
23.0884

> <Gold.Goldscore.Internal.HBond>
0.0000

> <Gold.Goldscore.External.HBond>
2.0298

> <Gold.Goldscore.Internal.Correction>
-0.7595

> <Gold.Goldscore.Hbonds>
donor molecule, donor type, donor heavy atom, donor atom, acceptor molecule, acceptor atom, score
      P1  H  1818  1839       L1    11  0.05
      L1  H     8    22       P1  7834  0.96

> <Gold.Goldscore.Internal.Vdw.Weighted>
-1.7222

> <Gold.Goldscore.Internal.Torsion.Weighted>
-0.7001

> <Gold.Goldscore.External.Vdw.Weighted>
31.7466

> <Gold.Goldscore.Internal.HBond.Weighted>
0.0000

> <Gold.Goldscore.External.HBond.Weighted>
2.0298

> <Gold.Goldscore.Internal.Correction.Weighted>
-0.7595

> <Gold.Rescore>
     Score     S(PLP)   S(hbond)     S(cho)   S(metal)  DE(clash)   DE(tors)     intcor
     -9.97      10.50       0.81       0.00       0.00       1.12       0.39       ----

> <Gold.PLP.Fitness>
-9.9677

> <Gold.PLP.PLP>
10.5001

> <Gold.PLP.part.hbond>
-3.0571

> <Gold.PLP.part.metal>
0.0000

> <Gold.PLP.part.buried>
13.7004

> <Gold.PLP.part.nonpolar>
-12.5031

> <Gold.PLP.part.repulsive>
5.7437

> <Gold.PLP.ligand.clash>
1.1178

> <Gold.PLP.ligand.torsion>
0.3937

> <Gold.PLP.Chemscore.Hbond>
0.8125

> <Gold.PLP.Chemscore.CHOScore>
0.0000

> <Gold.PLP.Chemscore.Metal>
0.0000

> <Gold.Chemscore.Hbonds>
donor molecule, donor type, donor heavy atom, donor atom, acceptor molecule, acceptor atom, score
      L1  H     8    22       P1  7834  0.78

> <Gold.PLP.Chemscore.Internal.Correction>
   9.000000E+99

