#       Name:                CT1002167954
#       Creating user name   hitesit
#       Creation time:       Sun Apr 16 22:51:53 2023


#       File generated by GOLD software.
#

@<TRIPOS>MOLECULE
CT1002167954|ligand_prepared|mol2|1|dock3
    29    30     1
SMALL
NO_CHARGES


@<TRIPOS>ATOM
      1 C1         -13.5890   1.6698  21.2430 C.3            1 RES1               0.0000
      2 C2         -13.3513   2.1550  19.7984 C.ar           1 RES1               0.0000
      3 C3         -13.0382   0.2485  21.3137 C.2            1 RES1               0.0000
      4 C4         -12.8695   2.6617  22.1501 C.2            1 RES1               0.0000
      5 C5         -15.0794   1.6400  21.6548 C.3            1 RES1               0.0000
      6 C6         -12.3077   1.6346  19.0388 C.ar           1 RES1               0.0000
      7 C7         -14.1672   3.1187  19.2118 C.ar           1 RES1               0.0000
      8 N8         -11.8630   0.0588  21.9791 N.am           1 RES1               0.0000
      9 O9         -13.6060  -0.6851  20.7604 O.2            1 RES1               0.0000
     10 N10        -11.7996   2.2083  22.8764 N.am           1 RES1               0.0000
     11 O11        -13.2090   3.8359  22.2298 O.2            1 RES1               0.0000
     12 C12        -15.3272   1.0070  23.0149 C.3            1 RES1               0.0000
     13 C13        -12.0895   2.0599  17.7389 C.ar           1 RES1               0.0000
     14 C14        -13.9471   3.5429  17.9118 C.ar           1 RES1               0.0000
     15 C15        -11.2447   0.9594  22.8087 C.2            1 RES1               0.0000
     16 C16        -12.9092   3.0139  17.1744 C.ar           1 RES1               0.0000
     17 O17        -10.2487   0.6429  23.4528 O.2            1 RES1               0.0000
     18 H18        -15.4625   2.6679  21.6686 H              1 RES1               0.0000
     19 H19        -15.6439   1.0820  20.8975 H              1 RES1               0.0000
     20 H20        -11.6508   0.8848  19.4670 H              1 RES1               0.0000
     21 H21        -14.9891   3.5496  19.7734 H              1 RES1               0.0000
     22 H22        -11.4011  -0.8354  21.8476 H              1 RES1               0.0000
     23 H23        -11.3778   2.8624  23.5280 H              1 RES1               0.0000
     24 H24        -16.3883   1.0116  23.2550 H              1 RES1               0.0000
     25 H25        -14.9810  -0.0244  23.0292 H              1 RES1               0.0000
     26 H26        -14.8007   1.5521  23.7957 H              1 RES1               0.0000
     27 H27        -11.2705   1.6415  17.1633 H              1 RES1               0.0000
     28 H28        -14.5943   4.2944  17.4717 H              1 RES1               0.0000
     29 H29        -12.7383   3.3467  16.1560 H              1 RES1               0.0000
@<TRIPOS>BOND
    1    1    2 1     
    2    1    3 1     
    3    1    4 1     
    4    1    5 1     
    5    2    6 ar    
    6    2    7 ar    
    7    3    8 1     
    8    3    9 2     
    9    4   10 1     
   10    4   11 2     
   11    5   12 1     
   12    5   18 1     
   13    5   19 1     
   14    6   13 ar    
   15    6   20 1     
   16    7   14 ar    
   17    7   21 1     
   18    8   15 1     
   19    8   22 1     
   20   10   15 1     
   21   10   23 1     
   22   12   24 1     
   23   12   25 1     
   24   12   26 1     
   25   13   16 ar    
   26   13   27 1     
   27   14   16 ar    
   28   14   28 1     
   29   15   17 2     
   30   16   29 1     
@<TRIPOS>SUBSTRUCTURE
      1 RES1           1
@<TRIPOS>SET
DONOR_HYDROGENS      STATIC     ATOMS    <user>   **** ""
2 22 23
ATOM$RED        STATIC     ATOMS    COLORGROUP SYSTEM
2 22 23
@<TRIPOS>COMMENT
> <Gold.Version>
2022.3.0

> <Gold.Id.Protein>
unknown|3mvj_clean|pdb

> <Gold.Protein.RotatedTorsions>
[ 11826 11799 11798 11795 ] final   40.27 input   60.01 | X-H torsion
[ 11911 11856 11855 11854 ] final   -5.99 input   60.02 | X-H torsion
[ 10977 10959 10958 10956 ] final -159.31 input   60.00 | X-H torsion
[ 10969 10948 10949 10950 ] final  -26.85 input   32.02 | X-H torsion
[ 10737 10719 10718 10716 ] final -105.39 input   60.01 | X-H torsion
[ 12076 12056 12057 12058 ] final -150.19 input   63.02 | X-H torsion
[ 10918 10911 10912 10913 ] final    4.53 input  -92.90 | X-H torsion
[ 6164 6140 6141 6142 ] final  -58.24 input   39.58 | X-H torsion
[ 6112 6105 6106 6107 ] final   93.91 input  -69.34 | X-H torsion
[ 5955 5918 5919 5920 ] final -120.97 input  125.26 | X-H torsion
[ 6027 5990 5991 5992 ] final   96.62 input  110.40 | X-H torsion
[ 6075 6056 6057 6058 ] final   10.23 input  107.04 | X-H torsion
[ 11686 11631 11630 11629 ] final   76.06 input   60.02 | X-H torsion
[ 11211 11201 11202 11203 ] final   92.51 input   18.84 | X-H torsion
[ 11249 11237 11238 11239 ] final -165.25 input  111.29 | X-H torsion
[ 11173 11153 11154 11155 ] final  105.37 input   30.50 | X-H torsion
[ 11292 11275 11276 11277 ] final   -5.95 input   58.53 | X-H torsion
[ 9451 9430 9431 9432 ] final  176.39 input  110.06 | X-H torsion
[ 11493 11474 11475 11476 ] final   -0.47 input  115.95 | X-H torsion
[ 11385 11366 11367 11368 ] final  -50.73 input  117.79 | X-H torsion
[ 11568 11550 11549 11547 ] final   56.02 input   59.97 | X-H torsion
[ 9369 9348 9346 9343 ] final  138.98 input   60.02 | X-H torsion
[ 9511 9481 9482 9483 ] final -167.18 input   75.78 | X-H torsion
[ 15475 15466 15465 15463 ] final  -76.17 input   60.00 | X-H torsion
[ 7755 7731 7730 7729 ] final   18.11 input   60.02 | X-H torsion
[ 7846 7831 7832 7833 ] final -158.44 input  113.97 | X-H torsion
[ 5737 5717 5718 5719 ] final  -30.41 input  137.93 | X-H torsion
[ 5778 5767 5768 5769 ] final  107.05 input  116.46 | X-H torsion
[ 1839 1818 1819 1820 ] final  165.12 input   43.70 | X-H torsion
[ 5782 5772 5771 5768 ] final -160.25 input   59.97 | X-H torsion
[ 15411 15403 15404 15405 ] final   -0.06 input  102.24 | X-H torsion
[ 1801 1791 1792 1793 ] final -102.97 input  -10.55 | X-H torsion
[ 5632 5617 5618 5619 ] final   -9.12 input   93.34 | X-H torsion
[ 7884 7874 7875 7876 ] final   90.60 input   68.03 | X-H torsion
[ 1845 1824 1822 1819 ] final   36.13 input   60.02 | X-H torsion
[ 1864 1854 1855 1856 ] final  142.12 input   57.50 | X-H torsion
[ 9363 9342 9343 9344 ] final   44.49 input   55.58 | X-H torsion
[ 9519 9492 9491 9489 ] final  152.96 input   60.02 | X-H torsion
[ 7745 7723 7724 7725 ] final -150.73 input   17.81 | X-H torsion
[ 1896 1884 1883 1880 ] final  159.71 input   60.01 | X-H torsion
[ 9325 9315 9316 9317 ] final   20.28 input  -36.21 | X-H torsion
[ 1892 1879 1880 1881 ] final   19.70 input   98.21 | X-H torsion
[ 9302 9286 9287 9288 ] final   38.21 input   37.00 | X-H torsion
[ 9263 9233 9234 9235 ] final   -5.75 input   95.32 | X-H torsion
[ 3370 3362 3363 3364 ] final  106.53 input   97.92 | X-H torsion
[ 1947 1922 1923 1924 ] final   -0.88 input  104.43 | X-H torsion
[ 12159 12148 12149 12150 ] final -166.50 input  116.04 | X-H torsion
[ 11673 11649 11648 11647 ] final    3.84 input   59.99 | X-H torsion
[ 12008 11984 11985 11986 ] final  118.83 input   61.04 | X-H torsion
[ 11113 11093 11094 11095 ] final   12.85 input   39.50 | X-H torsion
[ 7924 7916 7917 7918 ] final   92.89 input   66.66 | X-H torsion
[ 8650 8630 8631 8632 ] final -170.61 input   75.31 | X-H torsion
[ 9566 9536 9537 9538 ] final  -55.30 input  103.50 | X-H torsion
[ 16472 10886 10885 10884 ] final  -15.33 input    0.00 | X-H torsion
[ 16475 11004 11003 11002 ] final  -47.80 input    0.00 | X-H torsion
[ 16477 10914 10913 10912 ] final -171.50 input    0.00 | X-H torsion
[ 16479 10951 10950 10949 ] final -153.27 input   -0.00 | X-H torsion
[ 16484 11987 11986 11985 ] final   37.92 input    0.00 | X-H torsion
[ 16486 12059 12058 12057 ] final  -84.41 input   -0.00 | X-H torsion
[ 16490 11046 11045 11044 ] final -108.37 input    0.00 | X-H torsion
[ 16500 6108 6107 6106 ] final   59.95 input    0.00 | X-H torsion
[ 16503 5921 5920 5919 ] final  -53.55 input   -0.00 | X-H torsion
[ 16506 6059 6058 6057 ] final   70.21 input    0.00 | X-H torsion
[ 16510 5858 5857 5856 ] final   20.94 input    0.00 | X-H torsion
[ 16518 5993 5992 5991 ] final  126.39 input   -0.00 | X-H torsion
[ 16523 11156 11155 11154 ] final   49.03 input    0.00 | X-H torsion
[ 16528 11204 11203 11202 ] final -130.94 input    0.00 | X-H torsion
[ 16540 11096 11095 11094 ] final  -43.75 input   -0.00 | X-H torsion
[ 16544 10768 10767 10766 ] final  159.65 input   -0.00 | X-H torsion
[ 16552 11240 11239 11238 ] final  116.43 input    0.00 | X-H torsion
[ 16558 11278 11277 11276 ] final  100.93 input   -0.00 | X-H torsion
[ 16562 11325 11324 11323 ] final   -4.50 input   -0.00 | X-H torsion
[ 16566 9387 9386 9385 ] final  -94.53 input   -0.00 | X-H torsion
[ 16570 9345 9344 9343 ] final   86.88 input    0.00 | X-H torsion
[ 16579 5720 5719 5718 ] final  159.96 input    0.00 | X-H torsion
[ 16592 1821 1820 1819 ] final  172.61 input    0.00 | X-H torsion
[ 16594 7834 7833 7832 ] final  171.14 input    0.00 | X-H torsion
[ 16600 1745 1744 1743 ] final  -23.92 input    0.00 | X-H torsion
[ 16608 5620 5619 5618 ] final -177.70 input   -0.00 | X-H torsion
[ 16610 7788 7787 7786 ] final  -80.65 input   -0.00 | X-H torsion
[ 16613 1794 1793 1792 ] final   58.56 input   -0.00 | X-H torsion
[ 16622 9318 9317 9316 ] final -176.30 input   -0.00 | X-H torsion
[ 16627 9433 9432 9431 ] final  -49.75 input    0.00 | X-H torsion
[ 16631 7667 7666 7665 ] final  -92.09 input   -0.00 | X-H torsion
[ 16635 7726 7725 7724 ] final  108.98 input    0.00 | X-H torsion
[ 16637 10539 10538 10537 ] final -128.69 input   -0.00 | X-H torsion
[ 16643 1857 1856 1855 ] final  -58.36 input    0.00 | X-H torsion
[ 16645 7565 7564 7563 ] final   -4.95 input    0.00 | X-H torsion
[ 16647 9289 9288 9287 ] final -152.64 input    0.00 | X-H torsion
[ 16649 9236 9235 9234 ] final  113.50 input    0.00 | X-H torsion
[ 16655 3365 3364 3363 ] final   24.87 input    0.00 | X-H torsion

> <Gold.Protein.ActiveResidues>
 LEU49   GLY50   THR51   GLY52   SER53   PHE54   VAL57   LEU82   LYS83   GLN84  
 HIS87   GLU127  PHE129  SER130  LEU132  ARG133  ARG134  ILE135  GLY136  ARG137 
 ARG165  ASP166  LEU167  LYS168  PRO169  GLU170  ASN171  LEU172  LEU173  ASP184 
 GLY186  PHE187  TPO197  LEU198  CYS199  GLY200  THR201  PRO202  GLU203  TYR204 
 LEU205  ILE209  ILE210  VAL226  LEU227  TYR229  GLU230  ALA233  GLY234  TYR235 
 PRO236  PRO237  PHE238  PHE239  ALA240  ASP241  GLN242  PRO243  ILE244  GLN245 
 ILE246  TYR247  GLU248  LYS249  ILE250  VAL251  SER252  LYS254  ARG256  PHE257 
 PRO258  SER259  PHE327  ASP328  TYR330 

> <Gold.Protein.RotatedAtoms>
    1.3661  -13.3902   21.3095 H   0  0  0  0  0  0  0  0  0  0  0  0  # atno 1801 bound_to 1791
   -0.0552  -14.0861   24.1513 H   0  0  0  0  0  0  0  0  0  0  0  0  # atno 1839 bound_to 1818
   -1.2062  -14.9603   28.3068 H   0  0  0  0  0  0  0  0  0  0  0  0  # atno 1845 bound_to 1824
   -2.9513  -16.3099   26.1691 H   0  0  0  0  0  0  0  0  0  0  0  0  # atno 1864 bound_to 1854
   -4.7320  -17.6997   29.5297 H   0  0  0  0  0  0  0  0  0  0  0  0  # atno 1892 bound_to 1879
   -6.7419  -15.9250   32.7905 H   0  0  0  0  0  0  0  0  0  0  0  0  # atno 1896 bound_to 1884
   -3.6799  -19.0711   30.3147 H   0  0  0  0  0  0  0  0  0  0  0  0  # atno 1947 bound_to 1922
   -7.2304  -24.2910   35.6677 H   0  0  0  0  0  0  0  0  0  0  0  0  # atno 3370 bound_to 3362
   -4.3627   -9.4507   12.8689 H   0  0  0  0  0  0  0  0  0  0  0  0  # atno 5632 bound_to 5617
   -8.6930   -7.1637   13.8634 H   0  0  0  0  0  0  0  0  0  0  0  0  # atno 5737 bound_to 5717
   -6.3476   -6.5933   15.2572 H   0  0  0  0  0  0  0  0  0  0  0  0  # atno 5778 bound_to 5767
   -3.2209   -6.6598   14.3308 H   0  0  0  0  0  0  0  0  0  0  0  0  # atno 5782 bound_to 5772
  -10.0561   -1.7870   14.7916 H   0  0  0  0  0  0  0  0  0  0  0  0  # atno 5955 bound_to 5918
   -6.9834   -0.5983   14.1371 H   0  0  0  0  0  0  0  0  0  0  0  0  # atno 6027 bound_to 5990
   -8.1330    1.3493   12.7291 H   0  0  0  0  0  0  0  0  0  0  0  0  # atno 6075 bound_to 6056
   -9.9751    2.6925   11.5579 H   0  0  0  0  0  0  0  0  0  0  0  0  # atno 6112 bound_to 6105
  -12.1539    1.7723   11.5185 H   0  0  0  0  0  0  0  0  0  0  0  0  # atno 6164 bound_to 6140
  -16.0800  -13.1302   18.3111 H   0  0  0  0  0  0  0  0  0  0  0  0  # atno 7745 bound_to 7723
  -12.6860  -11.8133   24.2558 H   0  0  0  0  0  0  0  0  0  0  0  0  # atno 7755 bound_to 7731
  -12.1224  -13.3417   24.5617 H   0  0  0  0  0  0  0  0  0  0  0  0  # atno 7756 bound_to 7731
  -11.0819  -12.1653   24.0296 H   0  0  0  0  0  0  0  0  0  0  0  0  # atno 7757 bound_to 7731
  -10.6367   -9.2777   17.6656 H   0  0  0  0  0  0  0  0  0  0  0  0  # atno 7846 bound_to 7831
  -11.0895  -12.6455   17.7022 H   0  0  0  0  0  0  0  0  0  0  0  0  # atno 7884 bound_to 7874
  -10.5557  -12.7776   15.3772 H   0  0  0  0  0  0  0  0  0  0  0  0  # atno 7924 bound_to 7916
  -13.0545  -22.3178   24.0386 H   0  0  0  0  0  0  0  0  0  0  0  0  # atno 8650 bound_to 8630
  -20.6841  -21.2447   30.8539 H   0  0  0  0  0  0  0  0  0  0  0  0  # atno 9263 bound_to 9233
  -20.5171  -18.9590   28.6763 H   0  0  0  0  0  0  0  0  0  0  0  0  # atno 9302 bound_to 9286
  -17.3435  -16.4914   28.0743 H   0  0  0  0  0  0  0  0  0  0  0  0  # atno 9325 bound_to 9315
  -17.8572  -13.5814   25.0452 H   0  0  0  0  0  0  0  0  0  0  0  0  # atno 9363 bound_to 9342
  -14.5058  -13.2659   23.5873 H   0  0  0  0  0  0  0  0  0  0  0  0  # atno 9369 bound_to 9348
  -18.1045   -7.8429   26.3906 H   0  0  0  0  0  0  0  0  0  0  0  0  # atno 9451 bound_to 9430
  -19.2795   -8.7612   23.2595 H   0  0  0  0  0  0  0  0  0  0  0  0  # atno 9511 bound_to 9481
  -17.0294   -8.1406   17.2335 H   0  0  0  0  0  0  0  0  0  0  0  0  # atno 9519 bound_to 9492
  -21.6613  -11.1990   23.5085 H   0  0  0  0  0  0  0  0  0  0  0  0  # atno 9566 bound_to 9536
  -24.3056    1.0060   18.8263 H   0  0  0  0  0  0  0  0  0  0  0  0  # atno 10737 bound_to 10719
  -17.7853    0.7337   14.9831 H   0  0  0  0  0  0  0  0  0  0  0  0  # atno 10918 bound_to 10911
  -17.2003   -0.0521   16.3681 H   0  0  0  0  0  0  0  0  0  0  0  0  # atno 10969 bound_to 10948
  -21.4788    5.3194   16.6511 H   0  0  0  0  0  0  0  0  0  0  0  0  # atno 10977 bound_to 10959
  -21.8275   -2.6598   22.3320 H   0  0  0  0  0  0  0  0  0  0  0  0  # atno 11113 bound_to 11093
  -21.2031   -0.8618   24.5776 H   0  0  0  0  0  0  0  0  0  0  0  0  # atno 11173 bound_to 11153
  -19.5393   -1.4785   28.3826 H   0  0  0  0  0  0  0  0  0  0  0  0  # atno 11211 bound_to 11201
  -17.6271    1.4626   30.7416 H   0  0  0  0  0  0  0  0  0  0  0  0  # atno 11249 bound_to 11237
  -17.7363   -1.3619   32.2020 H   0  0  0  0  0  0  0  0  0  0  0  0  # atno 11292 bound_to 11275
  -19.9716   -5.8532   33.2492 H   0  0  0  0  0  0  0  0  0  0  0  0  # atno 11385 bound_to 11366
  -22.7658   -3.9314   31.7387 H   0  0  0  0  0  0  0  0  0  0  0  0  # atno 11493 bound_to 11474
  -18.6797   -9.9258   31.3324 H   0  0  0  0  0  0  0  0  0  0  0  0  # atno 11568 bound_to 11550
  -25.0114    2.0573   29.1251 H   0  0  0  0  0  0  0  0  0  0  0  0  # atno 11673 bound_to 11649
  -23.8376    2.9500   28.3671 H   0  0  0  0  0  0  0  0  0  0  0  0  # atno 11674 bound_to 11649
  -25.2738    2.6459   27.5973 H   0  0  0  0  0  0  0  0  0  0  0  0  # atno 11675 bound_to 11649
   -8.3880    9.3009   26.8662 H   0  0  0  0  0  0  0  0  0  0  0  0  # atno 11686 bound_to 11631
   -9.3956    8.1027   26.3234 H   0  0  0  0  0  0  0  0  0  0  0  0  # atno 11687 bound_to 11631
   -8.0565    8.5205   25.4416 H   0  0  0  0  0  0  0  0  0  0  0  0  # atno 11688 bound_to 11631
  -13.1915   17.0055   22.9006 H   0  0  0  0  0  0  0  0  0  0  0  0  # atno 11826 bound_to 11799
  -16.9904   14.8796   24.7203 H   0  0  0  0  0  0  0  0  0  0  0  0  # atno 11911 bound_to 11856
  -18.3474   15.7271   25.1543 H   0  0  0  0  0  0  0  0  0  0  0  0  # atno 11912 bound_to 11856
  -17.4021   16.2612   23.9014 H   0  0  0  0  0  0  0  0  0  0  0  0  # atno 11913 bound_to 11856
  -28.2748    1.3142   20.6043 H   0  0  0  0  0  0  0  0  0  0  0  0  # atno 12008 bound_to 11984
  -27.8359    2.3535   17.2619 H   0  0  0  0  0  0  0  0  0  0  0  0  # atno 12076 bound_to 12056
  -25.4226    7.4221   13.6674 H   0  0  0  0  0  0  0  0  0  0  0  0  # atno 12159 bound_to 12148
    1.9484   -8.7209   17.6414 H   0  0  0  0  0  0  0  0  0  0  0  0  # atno 15411 bound_to 15403
   -1.4249   -9.1907   21.2376 H   0  0  0  0  0  0  0  0  0  0  0  0  # atno 15475 bound_to 15466
  -12.3241   15.7642   22.3050 LP  0  0  0  0  0  0  0  0  0  0  0  0  # atno 16466 bound_to 11799
  -13.3769   15.5158   23.5284 LP  0  0  0  0  0  0  0  0  0  0  0  0  # atno 16467 bound_to 11799
  -21.9997    5.4521   18.1871 LP  0  0  0  0  0  0  0  0  0  0  0  0  # atno 16468 bound_to 10959
  -22.5213    4.2218   17.2486 LP  0  0  0  0  0  0  0  0  0  0  0  0  # atno 16469 bound_to 10959
  -18.0389    3.7305   14.0038 LP  0  0  0  0  0  0  0  0  0  0  0  0  # atno 16472 bound_to 10886
  -16.6665    3.2067   14.9215 LP  0  0  0  0  0  0  0  0  0  0  0  0  # atno 16473 bound_to 10886
  -16.4816    1.4904   16.7887 LP  0  0  0  0  0  0  0  0  0  0  0  0  # atno 16474 bound_to 10948
  -20.0305   -0.5224   21.6913 LP  0  0  0  0  0  0  0  0  0  0  0  0  # atno 16475 bound_to 11004
  -21.2659    0.0953   20.6462 LP  0  0  0  0  0  0  0  0  0  0  0  0  # atno 16476 bound_to 11004
  -14.6732    0.9031   18.1864 LP  0  0  0  0  0  0  0  0  0  0  0  0  # atno 16477 bound_to 10914
  -13.8377    1.4123   16.7572 LP  0  0  0  0  0  0  0  0  0  0  0  0  # atno 16478 bound_to 10914
  -20.1137   -0.9811   17.9783 LP  0  0  0  0  0  0  0  0  0  0  0  0  # atno 16479 bound_to 10951
  -18.9697   -0.4240   16.8032 LP  0  0  0  0  0  0  0  0  0  0  0  0  # atno 16480 bound_to 10951
  -24.5118    1.6746   17.3572 LP  0  0  0  0  0  0  0  0  0  0  0  0  # atno 16482 bound_to 10719
  -23.0351    1.6675   18.0544 LP  0  0  0  0  0  0  0  0  0  0  0  0  # atno 16483 bound_to 10719
  -26.4263    0.9277   18.3877 LP  0  0  0  0  0  0  0  0  0  0  0  0  # atno 16484 bound_to 11987
  -25.5482    2.0768   17.4346 LP  0  0  0  0  0  0  0  0  0  0  0  0  # atno 16485 bound_to 11987
  -27.4681    5.6760   14.4878 LP  0  0  0  0  0  0  0  0  0  0  0  0  # atno 16486 bound_to 12059
  -26.7702    5.9350   16.0517 LP  0  0  0  0  0  0  0  0  0  0  0  0  # atno 16487 bound_to 12059
  -24.0750   -0.0156   22.7270 LP  0  0  0  0  0  0  0  0  0  0  0  0  # atno 16490 bound_to 11046
  -25.3101   -1.1003   22.1811 LP  0  0  0  0  0  0  0  0  0  0  0  0  # atno 16491 bound_to 11046
  -28.1788    4.0218   16.8740 LP  0  0  0  0  0  0  0  0  0  0  0  0  # atno 16492 bound_to 12056
  -17.0607    0.7699   13.3898 LP  0  0  0  0  0  0  0  0  0  0  0  0  # atno 16493 bound_to 10911
  -13.3605    1.5272   14.4662 LP  0  0  0  0  0  0  0  0  0  0  0  0  # atno 16500 bound_to 6108
  -13.0174    0.2388   13.3606 LP  0  0  0  0  0  0  0  0  0  0  0  0  # atno 16501 bound_to 6108
  -13.2479    3.0811   11.9001 LP  0  0  0  0  0  0  0  0  0  0  0  0  # atno 16502 bound_to 6140
   -9.3621    2.0878   15.2118 LP  0  0  0  0  0  0  0  0  0  0  0  0  # atno 16503 bound_to 5921
   -7.7590    2.5330   15.6933 LP  0  0  0  0  0  0  0  0  0  0  0  0  # atno 16504 bound_to 5921
   -9.7067    1.6467   12.9360 LP  0  0  0  0  0  0  0  0  0  0  0  0  # atno 16505 bound_to 6105
  -10.3744    4.1965   10.2160 LP  0  0  0  0  0  0  0  0  0  0  0  0  # atno 16506 bound_to 6059
   -9.7012    4.8387   11.6770 LP  0  0  0  0  0  0  0  0  0  0  0  0  # atno 16507 bound_to 6059
  -10.8564    0.0606   12.8782 LP  0  0  0  0  0  0  0  0  0  0  0  0  # atno 16510 bound_to 5858
   -9.6593    0.7119   13.9472 LP  0  0  0  0  0  0  0  0  0  0  0  0  # atno 16511 bound_to 5858
   -8.3509   -1.9564   14.4553 LP  0  0  0  0  0  0  0  0  0  0  0  0  # atno 16516 bound_to 5918
   -7.6459    0.6546   15.1694 LP  0  0  0  0  0  0  0  0  0  0  0  0  # atno 16517 bound_to 5990
   -6.5160    3.6511   11.5291 LP  0  0  0  0  0  0  0  0  0  0  0  0  # atno 16518 bound_to 5993
   -6.9084    3.9251   13.1937 LP  0  0  0  0  0  0  0  0  0  0  0  0  # atno 16519 bound_to 5993
   -6.9395    0.9577   11.5235 LP  0  0  0  0  0  0  0  0  0  0  0  0  # atno 16520 bound_to 6056
  -21.7310    0.2792   27.0701 LP  0  0  0  0  0  0  0  0  0  0  0  0  # atno 16523 bound_to 11156
  -20.5549    1.4529   27.5591 LP  0  0  0  0  0  0  0  0  0  0  0  0  # atno 16524 bound_to 11156
  -18.7194   -0.2703   27.4120 LP  0  0  0  0  0  0  0  0  0  0  0  0  # atno 16525 bound_to 11201
  -16.3640   -1.3971   30.2250 LP  0  0  0  0  0  0  0  0  0  0  0  0  # atno 16528 bound_to 11204
  -16.5199   -0.5172   28.7412 LP  0  0  0  0  0  0  0  0  0  0  0  0  # atno 16529 bound_to 11204
  -18.1948   -0.0308   31.4503 LP  0  0  0  0  0  0  0  0  0  0  0  0  # atno 16530 bound_to 11237
  -21.7875   -1.9019   25.8587 LP  0  0  0  0  0  0  0  0  0  0  0  0  # atno 16533 bound_to 11153
  -21.1505   -4.3600   24.8113 LP  0  0  0  0  0  0  0  0  0  0  0  0  # atno 16540 bound_to 11096
  -19.7764   -3.3692   24.4507 LP  0  0  0  0  0  0  0  0  0  0  0  0  # atno 16541 bound_to 11096
  -16.0296   -2.0478   13.8077 LP  0  0  0  0  0  0  0  0  0  0  0  0  # atno 16544 bound_to 10768
  -16.9734   -1.3231   15.0663 LP  0  0  0  0  0  0  0  0  0  0  0  0  # atno 16545 bound_to 10768
  -14.6010   -1.7641   33.4208 LP  0  0  0  0  0  0  0  0  0  0  0  0  # atno 16552 bound_to 11240
  -14.6473   -1.7023   31.6905 LP  0  0  0  0  0  0  0  0  0  0  0  0  # atno 16553 bound_to 11240
  -16.7806   -0.6850   33.4992 LP  0  0  0  0  0  0  0  0  0  0  0  0  # atno 16554 bound_to 11275
  -19.1764   -3.3761   31.4999 LP  0  0  0  0  0  0  0  0  0  0  0  0  # atno 16558 bound_to 11278
  -19.9594   -3.3493   33.0447 LP  0  0  0  0  0  0  0  0  0  0  0  0  # atno 16559 bound_to 11278
  -18.8881   -9.2671   25.7438 LP  0  0  0  0  0  0  0  0  0  0  0  0  # atno 16561 bound_to 9430
  -20.5917   -6.2814   31.0906 LP  0  0  0  0  0  0  0  0  0  0  0  0  # atno 16562 bound_to 11325
  -21.8071   -6.2664   32.3245 LP  0  0  0  0  0  0  0  0  0  0  0  0  # atno 16563 bound_to 11325
  -21.3669   -2.9756   31.2917 LP  0  0  0  0  0  0  0  0  0  0  0  0  # atno 16564 bound_to 11474
  -19.5253   -5.8765   34.9303 LP  0  0  0  0  0  0  0  0  0  0  0  0  # atno 16565 bound_to 11366
  -21.2375   -9.3918   26.2311 LP  0  0  0  0  0  0  0  0  0  0  0  0  # atno 16566 bound_to 9387
  -21.0378   -8.1007   27.3682 LP  0  0  0  0  0  0  0  0  0  0  0  0  # atno 16567 bound_to 9387
  -19.4168  -11.3732   31.2341 LP  0  0  0  0  0  0  0  0  0  0  0  0  # atno 16568 bound_to 11550
  -19.0735  -10.7260   32.6935 LP  0  0  0  0  0  0  0  0  0  0  0  0  # atno 16569 bound_to 11550
  -19.2895  -12.0072   25.6034 LP  0  0  0  0  0  0  0  0  0  0  0  0  # atno 16570 bound_to 9345
  -18.5795  -10.8119   24.5704 LP  0  0  0  0  0  0  0  0  0  0  0  0  # atno 16571 bound_to 9345
  -14.9730  -13.9026   25.0099 LP  0  0  0  0  0  0  0  0  0  0  0  0  # atno 16572 bound_to 9348
  -13.7137  -12.8647   24.9508 LP  0  0  0  0  0  0  0  0  0  0  0  0  # atno 16573 bound_to 9348
  -19.8725   -9.7704   24.5597 LP  0  0  0  0  0  0  0  0  0  0  0  0  # atno 16574 bound_to 9481
   -7.6654   -3.4290   15.9659 LP  0  0  0  0  0  0  0  0  0  0  0  0  # atno 16579 bound_to 5720
   -9.2742   -4.0029   15.6788 LP  0  0  0  0  0  0  0  0  0  0  0  0  # atno 16580 bound_to 5720
   -2.1957  -10.1190   22.3292 LP  0  0  0  0  0  0  0  0  0  0  0  0  # atno 16587 bound_to 15466
   -1.5914  -10.7865   20.9669 LP  0  0  0  0  0  0  0  0  0  0  0  0  # atno 16588 bound_to 15466
  -11.3343  -10.8730   17.4418 LP  0  0  0  0  0  0  0  0  0  0  0  0  # atno 16591 bound_to 7831
   -3.9982  -13.8891   26.8859 LP  0  0  0  0  0  0  0  0  0  0  0  0  # atno 16592 bound_to 1821
   -2.6784  -13.0672   26.1227 LP  0  0  0  0  0  0  0  0  0  0  0  0  # atno 16593 bound_to 1821
   -7.9166  -13.8263   17.8158 LP  0  0  0  0  0  0  0  0  0  0  0  0  # atno 16594 bound_to 7834
   -7.2224  -12.2807   18.1752 LP  0  0  0  0  0  0  0  0  0  0  0  0  # atno 16595 bound_to 7834
   -9.0576   -8.4821   14.9637 LP  0  0  0  0  0  0  0  0  0  0  0  0  # atno 16596 bound_to 5717
   -7.5075   -5.3921   15.7819 LP  0  0  0  0  0  0  0  0  0  0  0  0  # atno 16597 bound_to 5767
   -0.0484  -12.5131   18.7519 LP  0  0  0  0  0  0  0  0  0  0  0  0  # atno 16600 bound_to 1745
   -1.1473  -13.2408   19.8757 LP  0  0  0  0  0  0  0  0  0  0  0  0  # atno 16601 bound_to 1745
   -1.7980  -13.9411   24.1097 LP  0  0  0  0  0  0  0  0  0  0  0  0  # atno 16602 bound_to 1818
   -3.8670   -5.5782   13.3009 LP  0  0  0  0  0  0  0  0  0  0  0  0  # atno 16603 bound_to 5772
   -4.8286   -6.6440   14.0793 LP  0  0  0  0  0  0  0  0  0  0  0  0  # atno 16604 bound_to 5772
    0.5922   -7.6333   17.4591 LP  0  0  0  0  0  0  0  0  0  0  0  0  # atno 16605 bound_to 15403
    0.8013  -14.9620   20.7847 LP  0  0  0  0  0  0  0  0  0  0  0  0  # atno 16606 bound_to 1791
   -3.9026  -10.7705   13.9246 LP  0  0  0  0  0  0  0  0  0  0  0  0  # atno 16607 bound_to 5617
   -6.7886   -7.2659   12.9605 LP  0  0  0  0  0  0  0  0  0  0  0  0  # atno 16608 bound_to 5620
   -5.2829   -7.9001   13.5355 LP  0  0  0  0  0  0  0  0  0  0  0  0  # atno 16609 bound_to 5620
  -10.0337  -11.1179   15.0465 LP  0  0  0  0  0  0  0  0  0  0  0  0  # atno 16610 bound_to 7788
   -9.2991   -9.5873   15.3899 LP  0  0  0  0  0  0  0  0  0  0  0  0  # atno 16611 bound_to 7788
   -9.3812  -12.4150   17.4363 LP  0  0  0  0  0  0  0  0  0  0  0  0  # atno 16612 bound_to 7874
    1.1923  -15.8667   23.2073 LP  0  0  0  0  0  0  0  0  0  0  0  0  # atno 16613 bound_to 1794
   -0.2345  -16.6972   23.7312 LP  0  0  0  0  0  0  0  0  0  0  0  0  # atno 16614 bound_to 1794
   -0.6294  -13.4449   28.1698 LP  0  0  0  0  0  0  0  0  0  0  0  0  # atno 16615 bound_to 1824
    0.2927  -14.6153   28.8381 LP  0  0  0  0  0  0  0  0  0  0  0  0  # atno 16616 bound_to 1824
   -1.8982  -15.7859   27.4717 LP  0  0  0  0  0  0  0  0  0  0  0  0  # atno 16617 bound_to 1854
  -15.4182  -13.8391   27.5260 LP  0  0  0  0  0  0  0  0  0  0  0  0  # atno 16622 bound_to 9318
  -15.7118  -15.5311   27.7517 LP  0  0  0  0  0  0  0  0  0  0  0  0  # atno 16623 bound_to 9318
  -16.7328  -14.3833   26.1195 LP  0  0  0  0  0  0  0  0  0  0  0  0  # atno 16624 bound_to 9342
  -21.7944   -7.2645   23.5499 LP  0  0  0  0  0  0  0  0  0  0  0  0  # atno 16627 bound_to 9433
  -21.1535   -7.9358   22.0875 LP  0  0  0  0  0  0  0  0  0  0  0  0  # atno 16628 bound_to 9433
  -16.1251   -7.4821   18.4154 LP  0  0  0  0  0  0  0  0  0  0  0  0  # atno 16629 bound_to 9492
  -17.6079   -6.8819   18.0876 LP  0  0  0  0  0  0  0  0  0  0  0  0  # atno 16630 bound_to 9492
  -17.7232  -12.1953   19.0440 LP  0  0  0  0  0  0  0  0  0  0  0  0  # atno 16631 bound_to 7667
  -16.9059  -13.0011   20.3412 LP  0  0  0  0  0  0  0  0  0  0  0  0  # atno 16632 bound_to 7667
  -14.4608  -13.5762   17.8051 LP  0  0  0  0  0  0  0  0  0  0  0  0  # atno 16634 bound_to 7723
  -13.1987  -12.3326   15.6933 LP  0  0  0  0  0  0  0  0  0  0  0  0  # atno 16635 bound_to 7726
  -12.4350  -12.7840   17.1810 LP  0  0  0  0  0  0  0  0  0  0  0  0  # atno 16636 bound_to 7726
  -20.4302   -5.9608   15.6120 LP  0  0  0  0  0  0  0  0  0  0  0  0  # atno 16637 bound_to 10539
  -20.3681   -5.7702   17.3324 LP  0  0  0  0  0  0  0  0  0  0  0  0  # atno 16638 bound_to 10539
   -5.8589  -15.7585   31.4341 LP  0  0  0  0  0  0  0  0  0  0  0  0  # atno 16639 bound_to 1884
   -5.2311  -15.3277   32.8787 LP  0  0  0  0  0  0  0  0  0  0  0  0  # atno 16640 bound_to 1884
  -17.8391  -17.7705   26.9842 LP  0  0  0  0  0  0  0  0  0  0  0  0  # atno 16641 bound_to 9315
   -4.4048  -16.0742   30.0865 LP  0  0  0  0  0  0  0  0  0  0  0  0  # atno 16642 bound_to 1879
   -1.7019  -17.3741   29.1167 LP  0  0  0  0  0  0  0  0  0  0  0  0  # atno 16643 bound_to 1857
   -1.9245  -16.3304   30.4809 LP  0  0  0  0  0  0  0  0  0  0  0  0  # atno 16644 bound_to 1857
  -18.6263  -17.8922   23.4671 LP  0  0  0  0  0  0  0  0  0  0  0  0  # atno 16645 bound_to 7565
  -17.1183  -17.1808   22.9981 LP  0  0  0  0  0  0  0  0  0  0  0  0  # atno 16646 bound_to 7565
  -19.7715  -17.2046   25.9491 LP  0  0  0  0  0  0  0  0  0  0  0  0  # atno 16647 bound_to 9289
  -20.5715  -17.7260   27.3942 LP  0  0  0  0  0  0  0  0  0  0  0  0  # atno 16648 bound_to 9289
  -18.1560  -19.7744   31.2013 LP  0  0  0  0  0  0  0  0  0  0  0  0  # atno 16649 bound_to 9236
  -18.6899  -18.3409   32.0137 LP  0  0  0  0  0  0  0  0  0  0  0  0  # atno 16650 bound_to 9236
  -19.7613  -18.9241   30.2521 LP  0  0  0  0  0  0  0  0  0  0  0  0  # atno 16653 bound_to 9286
  -22.2259  -20.9974   31.6425 LP  0  0  0  0  0  0  0  0  0  0  0  0  # atno 16654 bound_to 9233
  -10.8302  -22.7122   33.6913 LP  0  0  0  0  0  0  0  0  0  0  0  0  # atno 16655 bound_to 3365
  -12.0442  -23.8506   34.1712 LP  0  0  0  0  0  0  0  0  0  0  0  0  # atno 16656 bound_to 3365
   -8.2708  -24.6129   37.0348 LP  0  0  0  0  0  0  0  0  0  0  0  0  # atno 16657 bound_to 3362
   -5.2479  -19.5128   30.9616 LP  0  0  0  0  0  0  0  0  0  0  0  0  # atno 16658 bound_to 1922

> <Gold.Score>
     Fitness  S(hb_ext) S(vdw_ext)  S(hb_int)    S(int)      intcor
     24.51       0.00      18.51       0.00      -0.94      -0.77

> <Gold.Goldscore.Fitness>
24.5100

> <Gold.Goldscore.Internal.Vdw>
-1.2632

> <Gold.Goldscore.Internal.Torsion>
-0.4455

> <Gold.Goldscore.External.Vdw>
18.5086

> <Gold.Goldscore.Internal.HBond>
0.0000

> <Gold.Goldscore.External.HBond>
0.0000

> <Gold.Goldscore.Internal.Correction>
-0.7693

> <Gold.Goldscore.Internal.Vdw.Weighted>
-1.2632

> <Gold.Goldscore.Internal.Torsion.Weighted>
-0.4455

> <Gold.Goldscore.External.Vdw.Weighted>
25.4493

> <Gold.Goldscore.Internal.HBond.Weighted>
0.0000

> <Gold.Goldscore.External.HBond.Weighted>
0.0000

> <Gold.Goldscore.Internal.Correction.Weighted>
-0.7693

> <Gold.Rescore>
     Score     S(PLP)   S(hbond)     S(cho)   S(metal)  DE(clash)   DE(tors)     intcor
     22.92     -25.11       0.00       0.00       0.00       0.00       1.09       ----

> <Gold.PLP.Fitness>
22.9182

> <Gold.PLP.PLP>
-25.1066

> <Gold.PLP.part.hbond>
-1.5116

> <Gold.PLP.part.metal>
0.0000

> <Gold.PLP.part.buried>
-0.9920

> <Gold.PLP.part.nonpolar>
-23.9092

> <Gold.PLP.part.repulsive>
0.3322

> <Gold.PLP.ligand.clash>
0.0000

> <Gold.PLP.ligand.torsion>
1.0942

> <Gold.PLP.Chemscore.Hbond>
0.0000

> <Gold.PLP.Chemscore.CHOScore>
0.0000

> <Gold.PLP.Chemscore.Metal>
0.0000

> <Gold.PLP.Chemscore.Internal.Correction>
   9.000000E+99

