#       Name:                CT1002167954
#       Creating user name   hitesit
#       Creation time:       Sun Apr 16 22:51:56 2023


#       File generated by GOLD software.
#

@<TRIPOS>MOLECULE
CT1002167954|ligand_prepared|mol2|1|dock4
    29    30     1
SMALL
NO_CHARGES


@<TRIPOS>ATOM
      1 C1         -12.5070   1.2745  21.0532 C.3            1 RES1               0.0000
      2 C2         -12.5034   1.8899  19.6389 C.ar           1 RES1               0.0000
      3 C3         -12.4006   2.4428  22.0289 C.2            1 RES1               0.0000
      4 C4         -13.8044   0.4822  21.1704 C.2            1 RES1               0.0000
      5 C5         -11.3304   0.3061  21.3162 C.3            1 RES1               0.0000
      6 C6         -13.5762   2.6589  19.1980 C.ar           1 RES1               0.0000
      7 C7         -11.4352   1.6998  18.7663 C.ar           1 RES1               0.0000
      8 N8         -13.5216   2.7895  22.7241 N.am           1 RES1               0.0000
      9 O9         -11.3597   3.0753  22.1573 O.2            1 RES1               0.0000
     10 N10        -14.7408   0.9134  22.0731 N.am           1 RES1               0.0000
     11 O11        -14.0312  -0.5019  20.4773 O.2            1 RES1               0.0000
     12 C12        -11.3889  -0.3753  22.6743 C.3            1 RES1               0.0000
     13 C13        -13.5798   3.2201  17.9318 C.ar           1 RES1               0.0000
     14 C14        -11.4409   2.2618  17.5004 C.ar           1 RES1               0.0000
     15 C15        -14.6710   2.0489  22.8334 C.2            1 RES1               0.0000
     16 C16        -12.5121   3.0224  17.0824 C.ar           1 RES1               0.0000
     17 O17        -15.5782   2.3995  23.5826 O.2            1 RES1               0.0000
     18 H18        -11.3253  -0.4638  20.5348 H              1 RES1               0.0000
     19 H19        -10.3895   0.8653  21.2421 H              1 RES1               0.0000
     20 H20        -14.4264   2.8234  19.8516 H              1 RES1               0.0000
     21 H21        -10.5822   1.1043  19.0734 H              1 RES1               0.0000
     22 H22        -13.5035   3.6820  23.2072 H              1 RES1               0.0000
     23 H23        -15.5662   0.3342  22.1893 H              1 RES1               0.0000
     24 H24        -10.5406  -1.0434  22.8075 H              1 RES1               0.0000
     25 H25        -11.3702   0.3601  23.4760 H              1 RES1               0.0000
     26 H26        -12.3005  -0.9611  22.7729 H              1 RES1               0.0000
     27 H27        -14.4259   3.8167  17.6071 H              1 RES1               0.0000
     28 H28        -10.5987   2.1030  16.8350 H              1 RES1               0.0000
     29 H29        -12.5149   3.4625  16.0906 H              1 RES1               0.0000
@<TRIPOS>BOND
    1    1    2 1     
    2    1    3 1     
    3    1    4 1     
    4    1    5 1     
    5    2    6 ar    
    6    2    7 ar    
    7    3    8 1     
    8    3    9 2     
    9    4   10 1     
   10    4   11 2     
   11    5   12 1     
   12    5   18 1     
   13    5   19 1     
   14    6   13 ar    
   15    6   20 1     
   16    7   14 ar    
   17    7   21 1     
   18    8   15 1     
   19    8   22 1     
   20   10   15 1     
   21   10   23 1     
   22   12   24 1     
   23   12   25 1     
   24   12   26 1     
   25   13   16 ar    
   26   13   27 1     
   27   14   16 ar    
   28   14   28 1     
   29   15   17 2     
   30   16   29 1     
@<TRIPOS>SUBSTRUCTURE
      1 RES1           1
@<TRIPOS>SET
DONOR_HYDROGENS      STATIC     ATOMS    <user>   **** ""
2 22 23
ATOM$RED        STATIC     ATOMS    COLORGROUP SYSTEM
2 22 23
@<TRIPOS>COMMENT
> <Gold.Version>
2022.3.0

> <Gold.Id.Protein>
unknown|3mvj_clean|pdb

> <Gold.Protein.RotatedTorsions>
[ 11826 11799 11798 11795 ] final  -27.98 input   60.01 | X-H torsion
[ 11911 11856 11855 11854 ] final    5.76 input   60.02 | X-H torsion
[ 10977 10959 10958 10956 ] final   80.08 input   60.00 | X-H torsion
[ 10969 10948 10949 10950 ] final -176.33 input   32.02 | X-H torsion
[ 10737 10719 10718 10716 ] final   60.99 input   60.01 | X-H torsion
[ 12076 12056 12057 12058 ] final   36.79 input   63.02 | X-H torsion
[ 10918 10911 10912 10913 ] final  -67.13 input  -92.90 | X-H torsion
[ 6164 6140 6141 6142 ] final  166.05 input   39.58 | X-H torsion
[ 6112 6105 6106 6107 ] final  156.21 input  -69.34 | X-H torsion
[ 5955 5918 5919 5920 ] final  146.02 input  125.26 | X-H torsion
[ 6027 5990 5991 5992 ] final  -28.49 input  110.40 | X-H torsion
[ 6075 6056 6057 6058 ] final   78.04 input  107.04 | X-H torsion
[ 11686 11631 11630 11629 ] final  161.76 input   60.02 | X-H torsion
[ 11211 11201 11202 11203 ] final   98.06 input   18.84 | X-H torsion
[ 11249 11237 11238 11239 ] final  104.70 input  111.29 | X-H torsion
[ 11173 11153 11154 11155 ] final  126.34 input   30.50 | X-H torsion
[ 11292 11275 11276 11277 ] final  117.94 input   58.53 | X-H torsion
[ 9451 9430 9431 9432 ] final   -6.42 input  110.06 | X-H torsion
[ 11493 11474 11475 11476 ] final    5.16 input  115.95 | X-H torsion
[ 11385 11366 11367 11368 ] final  148.92 input  117.79 | X-H torsion
[ 11568 11550 11549 11547 ] final -129.66 input   59.97 | X-H torsion
[ 9369 9348 9346 9343 ] final   53.17 input   60.02 | X-H torsion
[ 9511 9481 9482 9483 ] final   -2.99 input   75.78 | X-H torsion
[ 15475 15466 15465 15463 ] final  -90.31 input   60.00 | X-H torsion
[ 7755 7731 7730 7729 ] final  -55.31 input   60.02 | X-H torsion
[ 7846 7831 7832 7833 ] final -174.32 input  113.97 | X-H torsion
[ 5737 5717 5718 5719 ] final   28.26 input  137.93 | X-H torsion
[ 5778 5767 5768 5769 ] final    2.63 input  116.46 | X-H torsion
[ 1839 1818 1819 1820 ] final  -84.18 input   43.70 | X-H torsion
[ 5782 5772 5771 5768 ] final   29.02 input   59.97 | X-H torsion
[ 15411 15403 15404 15405 ] final  117.85 input  102.24 | X-H torsion
[ 1801 1791 1792 1793 ] final -124.29 input  -10.55 | X-H torsion
[ 5632 5617 5618 5619 ] final  -71.06 input   93.34 | X-H torsion
[ 7884 7874 7875 7876 ] final  -34.49 input   68.03 | X-H torsion
[ 1845 1824 1822 1819 ] final  -84.70 input   60.02 | X-H torsion
[ 1864 1854 1855 1856 ] final  -22.60 input   57.50 | X-H torsion
[ 9363 9342 9343 9344 ] final -165.06 input   55.58 | X-H torsion
[ 9519 9492 9491 9489 ] final   27.70 input   60.02 | X-H torsion
[ 7745 7723 7724 7725 ] final  -58.08 input   17.81 | X-H torsion
[ 1896 1884 1883 1880 ] final   90.95 input   60.01 | X-H torsion
[ 9325 9315 9316 9317 ] final  139.56 input  -36.21 | X-H torsion
[ 1892 1879 1880 1881 ] final  -66.50 input   98.21 | X-H torsion
[ 9302 9286 9287 9288 ] final  177.48 input   37.00 | X-H torsion
[ 9263 9233 9234 9235 ] final  127.47 input   95.32 | X-H torsion
[ 3370 3362 3363 3364 ] final  -48.61 input   97.92 | X-H torsion
[ 1947 1922 1923 1924 ] final   67.71 input  104.43 | X-H torsion
[ 12159 12148 12149 12150 ] final  -95.07 input  116.04 | X-H torsion
[ 11673 11649 11648 11647 ] final  137.17 input   59.99 | X-H torsion
[ 12008 11984 11985 11986 ] final  167.74 input   61.04 | X-H torsion
[ 11113 11093 11094 11095 ] final  -70.31 input   39.50 | X-H torsion
[ 7924 7916 7917 7918 ] final  -61.49 input   66.66 | X-H torsion
[ 8650 8630 8631 8632 ] final  -76.66 input   75.31 | X-H torsion
[ 9566 9536 9537 9538 ] final  -79.40 input  103.50 | X-H torsion
[ 16472 10886 10885 10884 ] final   50.47 input    0.00 | X-H torsion
[ 16475 11004 11003 11002 ] final -146.33 input    0.00 | X-H torsion
[ 16477 10914 10913 10912 ] final  -63.36 input    0.00 | X-H torsion
[ 16479 10951 10950 10949 ] final  -42.34 input   -0.00 | X-H torsion
[ 16484 11987 11986 11985 ] final -109.80 input    0.00 | X-H torsion
[ 16486 12059 12058 12057 ] final   48.76 input   -0.00 | X-H torsion
[ 16490 11046 11045 11044 ] final  -45.47 input    0.00 | X-H torsion
[ 16500 6108 6107 6106 ] final  117.73 input    0.00 | X-H torsion
[ 16503 5921 5920 5919 ] final  -12.99 input   -0.00 | X-H torsion
[ 16506 6059 6058 6057 ] final  179.77 input    0.00 | X-H torsion
[ 16510 5858 5857 5856 ] final  -63.76 input    0.00 | X-H torsion
[ 16518 5993 5992 5991 ] final  -86.23 input   -0.00 | X-H torsion
[ 16523 11156 11155 11154 ] final  -59.58 input    0.00 | X-H torsion
[ 16528 11204 11203 11202 ] final   64.18 input    0.00 | X-H torsion
[ 16540 11096 11095 11094 ] final   20.59 input   -0.00 | X-H torsion
[ 16544 10768 10767 10766 ] final  141.67 input   -0.00 | X-H torsion
[ 16552 11240 11239 11238 ] final  171.19 input    0.00 | X-H torsion
[ 16558 11278 11277 11276 ] final  -32.79 input   -0.00 | X-H torsion
[ 16562 11325 11324 11323 ] final   19.25 input   -0.00 | X-H torsion
[ 16566 9387 9386 9385 ] final  -85.58 input   -0.00 | X-H torsion
[ 16570 9345 9344 9343 ] final  -16.05 input    0.00 | X-H torsion
[ 16579 5720 5719 5718 ] final  114.74 input    0.00 | X-H torsion
[ 16592 1821 1820 1819 ] final -177.76 input    0.00 | X-H torsion
[ 16594 7834 7833 7832 ] final -170.68 input    0.00 | X-H torsion
[ 16600 1745 1744 1743 ] final   68.31 input    0.00 | X-H torsion
[ 16608 5620 5619 5618 ] final   26.16 input   -0.00 | X-H torsion
[ 16610 7788 7787 7786 ] final  120.28 input   -0.00 | X-H torsion
[ 16613 1794 1793 1792 ] final  123.08 input   -0.00 | X-H torsion
[ 16622 9318 9317 9316 ] final  163.82 input   -0.00 | X-H torsion
[ 16627 9433 9432 9431 ] final  123.11 input    0.00 | X-H torsion
[ 16631 7667 7666 7665 ] final   75.04 input   -0.00 | X-H torsion
[ 16635 7726 7725 7724 ] final   41.36 input    0.00 | X-H torsion
[ 16637 10539 10538 10537 ] final   31.41 input   -0.00 | X-H torsion
[ 16643 1857 1856 1855 ] final  120.12 input    0.00 | X-H torsion
[ 16645 7565 7564 7563 ] final -141.49 input    0.00 | X-H torsion
[ 16647 9289 9288 9287 ] final   28.78 input    0.00 | X-H torsion
[ 16649 9236 9235 9234 ] final   32.97 input    0.00 | X-H torsion
[ 16655 3365 3364 3363 ] final -177.98 input    0.00 | X-H torsion

> <Gold.Protein.ActiveResidues>
 LEU49   GLY50   THR51   GLY52   SER53   PHE54   VAL57   LEU82   LYS83   GLN84  
 HIS87   GLU127  PHE129  SER130  LEU132  ARG133  ARG134  ILE135  GLY136  ARG137 
 ARG165  ASP166  LEU167  LYS168  PRO169  GLU170  ASN171  LEU172  LEU173  ASP184 
 GLY186  PHE187  TPO197  LEU198  CYS199  GLY200  THR201  PRO202  GLU203  TYR204 
 LEU205  ILE209  ILE210  VAL226  LEU227  TYR229  GLU230  ALA233  GLY234  TYR235 
 PRO236  PRO237  PHE238  PHE239  ALA240  ASP241  GLN242  PRO243  ILE244  GLN245 
 ILE246  TYR247  GLU248  LYS249  ILE250  VAL251  SER252  LYS254  ARG256  PHE257 
 PRO258  SER259  PHE327  ASP328  TYR330 

> <Gold.Protein.RotatedAtoms>
    1.1873  -13.3058   21.0461 H   0  0  0  0  0  0  0  0  0  0  0  0  # atno 1801 bound_to 1791
   -1.3009  -14.7009   23.7029 H   0  0  0  0  0  0  0  0  0  0  0  0  # atno 1839 bound_to 1818
   -0.6152  -13.4489   28.1741 H   0  0  0  0  0  0  0  0  0  0  0  0  # atno 1845 bound_to 1824
   -1.8701  -16.0112   27.5522 H   0  0  0  0  0  0  0  0  0  0  0  0  # atno 1864 bound_to 1854
   -3.7252  -17.0255   29.5721 H   0  0  0  0  0  0  0  0  0  0  0  0  # atno 1892 bound_to 1879
   -6.5694  -15.9939   31.7501 H   0  0  0  0  0  0  0  0  0  0  0  0  # atno 1896 bound_to 1884
   -4.5218  -19.1414   29.7648 H   0  0  0  0  0  0  0  0  0  0  0  0  # atno 1947 bound_to 1922
   -8.3938  -24.8815   36.8007 H   0  0  0  0  0  0  0  0  0  0  0  0  # atno 3370 bound_to 3362
   -4.3651  -10.3183   12.5690 H   0  0  0  0  0  0  0  0  0  0  0  0  # atno 5632 bound_to 5617
   -8.0310   -7.6122   14.2340 H   0  0  0  0  0  0  0  0  0  0  0  0  # atno 5737 bound_to 5717
   -7.3393   -5.7222   14.7751 H   0  0  0  0  0  0  0  0  0  0  0  0  # atno 5778 bound_to 5767
   -4.6216   -5.8344   13.4143 H   0  0  0  0  0  0  0  0  0  0  0  0  # atno 5782 bound_to 5772
   -9.0862   -2.4868   15.2445 H   0  0  0  0  0  0  0  0  0  0  0  0  # atno 5955 bound_to 5918
   -8.0454    0.5351   14.4754 H   0  0  0  0  0  0  0  0  0  0  0  0  # atno 6027 bound_to 5990
   -8.1663    0.5542   12.1719 H   0  0  0  0  0  0  0  0  0  0  0  0  # atno 6075 bound_to 6056
   -9.4592    2.9659   12.2700 H   0  0  0  0  0  0  0  0  0  0  0  0  # atno 6112 bound_to 6105
  -13.1787    2.6810   12.4196 H   0  0  0  0  0  0  0  0  0  0  0  0  # atno 6164 bound_to 6140
  -15.4334  -13.1980   17.1889 H   0  0  0  0  0  0  0  0  0  0  0  0  # atno 7745 bound_to 7723
  -11.5945  -11.6105   23.9803 H   0  0  0  0  0  0  0  0  0  0  0  0  # atno 7755 bound_to 7731
  -12.8967  -12.5022   24.4867 H   0  0  0  0  0  0  0  0  0  0  0  0  # atno 7756 bound_to 7731
  -11.3998  -13.2074   24.3802 H   0  0  0  0  0  0  0  0  0  0  0  0  # atno 7757 bound_to 7731
  -10.7446   -9.2996   17.8884 H   0  0  0  0  0  0  0  0  0  0  0  0  # atno 7846 bound_to 7831
   -9.8640  -12.3162   16.8007 H   0  0  0  0  0  0  0  0  0  0  0  0  # atno 7884 bound_to 7874
   -9.5082  -14.1422   15.4013 H   0  0  0  0  0  0  0  0  0  0  0  0  # atno 7924 bound_to 7916
  -13.1723  -23.4316   23.3796 H   0  0  0  0  0  0  0  0  0  0  0  0  # atno 8650 bound_to 8630
  -21.7061  -21.0217   32.1032 H   0  0  0  0  0  0  0  0  0  0  0  0  # atno 9263 bound_to 9233
  -19.7166  -19.4886   30.0291 H   0  0  0  0  0  0  0  0  0  0  0  0  # atno 9302 bound_to 9286
  -18.4666  -17.2922   27.3882 H   0  0  0  0  0  0  0  0  0  0  0  0  # atno 9325 bound_to 9315
  -16.5114  -14.3999   25.7311 H   0  0  0  0  0  0  0  0  0  0  0  0  # atno 9363 bound_to 9342
  -15.1268  -13.9305   24.4802 H   0  0  0  0  0  0  0  0  0  0  0  0  # atno 9369 bound_to 9348
  -18.9414   -9.2714   25.7483 H   0  0  0  0  0  0  0  0  0  0  0  0  # atno 9451 bound_to 9430
  -20.0808   -9.6465   24.5512 H   0  0  0  0  0  0  0  0  0  0  0  0  # atno 9511 bound_to 9481
  -16.1652   -7.4174   18.4565 H   0  0  0  0  0  0  0  0  0  0  0  0  # atno 9519 bound_to 9492
  -21.3877  -11.4385   23.5341 H   0  0  0  0  0  0  0  0  0  0  0  0  # atno 9566 bound_to 9536
  -23.4076    1.8739   17.4492 H   0  0  0  0  0  0  0  0  0  0  0  0  # atno 10737 bound_to 10719
  -17.4357   -0.0933   14.4526 H   0  0  0  0  0  0  0  0  0  0  0  0  # atno 10918 bound_to 10911
  -16.1122    1.2112   16.8116 H   0  0  0  0  0  0  0  0  0  0  0  0  # atno 10969 bound_to 10948
  -22.0048    5.4412   18.1855 H   0  0  0  0  0  0  0  0  0  0  0  0  # atno 10977 bound_to 10959
  -22.3395   -1.5885   22.2697 H   0  0  0  0  0  0  0  0  0  0  0  0  # atno 11113 bound_to 11093
  -21.1229   -1.1522   24.4590 H   0  0  0  0  0  0  0  0  0  0  0  0  # atno 11173 bound_to 11153
  -19.6135   -1.4399   28.3604 H   0  0  0  0  0  0  0  0  0  0  0  0  # atno 11211 bound_to 11201
  -18.2649    1.1591   31.7748 H   0  0  0  0  0  0  0  0  0  0  0  0  # atno 11249 bound_to 11237
  -17.5973   -0.6686   33.5941 H   0  0  0  0  0  0  0  0  0  0  0  0  # atno 11292 bound_to 11275
  -19.4928   -6.1654   34.8610 H   0  0  0  0  0  0  0  0  0  0  0  0  # atno 11385 bound_to 11366
  -22.7101   -3.9969   31.7561 H   0  0  0  0  0  0  0  0  0  0  0  0  # atno 11493 bound_to 11474
  -19.4128  -11.3789   32.2531 H   0  0  0  0  0  0  0  0  0  0  0  0  # atno 11568 bound_to 11550
  -23.8956    3.0175   28.1640 H   0  0  0  0  0  0  0  0  0  0  0  0  # atno 11673 bound_to 11649
  -25.4147    2.5238   27.7192 H   0  0  0  0  0  0  0  0  0  0  0  0  # atno 11674 bound_to 11649
  -24.8122    2.1116   29.2074 H   0  0  0  0  0  0  0  0  0  0  0  0  # atno 11675 bound_to 11649
   -9.3681    8.4497   26.7671 H   0  0  0  0  0  0  0  0  0  0  0  0  # atno 11686 bound_to 11631
   -8.4814    8.1520   25.3993 H   0  0  0  0  0  0  0  0  0  0  0  0  # atno 11687 bound_to 11631
   -7.9911    9.3222   26.4650 H   0  0  0  0  0  0  0  0  0  0  0  0  # atno 11688 bound_to 11631
  -12.4888   16.5661   22.2556 H   0  0  0  0  0  0  0  0  0  0  0  0  # atno 11826 bound_to 11799
  -17.1140   14.8324   24.8649 H   0  0  0  0  0  0  0  0  0  0  0  0  # atno 11911 bound_to 11856
  -18.3797   15.8874   25.0463 H   0  0  0  0  0  0  0  0  0  0  0  0  # atno 11912 bound_to 11856
  -17.2463   16.1481   23.8648 H   0  0  0  0  0  0  0  0  0  0  0  0  # atno 11913 bound_to 11856
  -29.0142    1.3564   20.5290 H   0  0  0  0  0  0  0  0  0  0  0  0  # atno 12008 bound_to 11984
  -28.2656    4.0016   16.8133 H   0  0  0  0  0  0  0  0  0  0  0  0  # atno 12076 bound_to 12056
  -25.5074    6.5187   13.1755 H   0  0  0  0  0  0  0  0  0  0  0  0  # atno 12159 bound_to 12148
    0.5144   -8.3639   17.9815 H   0  0  0  0  0  0  0  0  0  0  0  0  # atno 15411 bound_to 15403
   -1.5190   -9.1226   21.4368 H   0  0  0  0  0  0  0  0  0  0  0  0  # atno 15475 bound_to 15466
  -12.8263   15.1715   23.0230 LP  0  0  0  0  0  0  0  0  0  0  0  0  # atno 16466 bound_to 11799
  -13.5826   16.5512   23.4603 LP  0  0  0  0  0  0  0  0  0  0  0  0  # atno 16467 bound_to 11799
  -22.5179    4.2210   17.2388 LP  0  0  0  0  0  0  0  0  0  0  0  0  # atno 16468 bound_to 10959
  -21.4732    5.3302   16.6514 LP  0  0  0  0  0  0  0  0  0  0  0  0  # atno 16469 bound_to 10959
  -18.0719    3.5803   14.9319 LP  0  0  0  0  0  0  0  0  0  0  0  0  # atno 16472 bound_to 10886
  -16.6335    3.3568   13.9933 LP  0  0  0  0  0  0  0  0  0  0  0  0  # atno 16473 bound_to 10886
  -17.5262    0.2775   16.3629 LP  0  0  0  0  0  0  0  0  0  0  0  0  # atno 16474 bound_to 10948
  -21.3391   -0.4342   21.6419 LP  0  0  0  0  0  0  0  0  0  0  0  0  # atno 16475 bound_to 11004
  -19.9573    0.0071   20.6955 LP  0  0  0  0  0  0  0  0  0  0  0  0  # atno 16476 bound_to 11004
  -13.8879    0.4611   17.1116 LP  0  0  0  0  0  0  0  0  0  0  0  0  # atno 16477 bound_to 10914
  -14.6230    1.8542   17.8320 LP  0  0  0  0  0  0  0  0  0  0  0  0  # atno 16478 bound_to 10914
  -19.5318    0.1627   17.3548 LP  0  0  0  0  0  0  0  0  0  0  0  0  # atno 16479 bound_to 10951
  -19.5516   -1.5677   17.4267 LP  0  0  0  0  0  0  0  0  0  0  0  0  # atno 16480 bound_to 10951
  -23.5808    1.1402   18.8912 LP  0  0  0  0  0  0  0  0  0  0  0  0  # atno 16482 bound_to 10719
  -24.8704    1.3279   17.9072 LP  0  0  0  0  0  0  0  0  0  0  0  0  # atno 16483 bound_to 10719
  -25.5013    2.2188   17.8923 LP  0  0  0  0  0  0  0  0  0  0  0  0  # atno 16484 bound_to 11987
  -26.4733    0.7857   17.9299 LP  0  0  0  0  0  0  0  0  0  0  0  0  # atno 16485 bound_to 11987
  -27.3560    5.5741   16.0700 LP  0  0  0  0  0  0  0  0  0  0  0  0  # atno 16486 bound_to 12059
  -26.8822    6.0370   14.4696 LP  0  0  0  0  0  0  0  0  0  0  0  0  # atno 16487 bound_to 12059
  -24.4050    0.0299   21.8869 LP  0  0  0  0  0  0  0  0  0  0  0  0  # atno 16490 bound_to 11046
  -24.9800   -1.1458   23.0213 LP  0  0  0  0  0  0  0  0  0  0  0  0  # atno 16491 bound_to 11046
  -27.7578    2.4070   17.3136 LP  0  0  0  0  0  0  0  0  0  0  0  0  # atno 16492 bound_to 12056
  -17.3981    1.5682   13.9020 LP  0  0  0  0  0  0  0  0  0  0  0  0  # atno 16493 bound_to 10911
  -13.9513    1.2939   13.9214 LP  0  0  0  0  0  0  0  0  0  0  0  0  # atno 16500 bound_to 6108
  -12.4266    0.4721   13.9054 LP  0  0  0  0  0  0  0  0  0  0  0  0  # atno 16501 bound_to 6108
  -12.2487    2.1951   11.0216 LP  0  0  0  0  0  0  0  0  0  0  0  0  # atno 16502 bound_to 6140
   -9.2988    2.0269   15.8056 LP  0  0  0  0  0  0  0  0  0  0  0  0  # atno 16503 bound_to 5921
   -7.8224    2.5939   15.0995 LP  0  0  0  0  0  0  0  0  0  0  0  0  # atno 16504 bound_to 5921
  -10.2054    1.3824   12.2476 LP  0  0  0  0  0  0  0  0  0  0  0  0  # atno 16505 bound_to 6105
  -10.6524    4.5592   11.5552 LP  0  0  0  0  0  0  0  0  0  0  0  0  # atno 16506 bound_to 6059
   -9.4232    4.4760   10.3378 LP  0  0  0  0  0  0  0  0  0  0  0  0  # atno 16507 bound_to 6059
   -9.7407    0.3625   12.7185 LP  0  0  0  0  0  0  0  0  0  0  0  0  # atno 16510 bound_to 5858
  -10.7750    0.4101   14.1070 LP  0  0  0  0  0  0  0  0  0  0  0  0  # atno 16511 bound_to 5858
   -9.3026   -1.2698   14.0109 LP  0  0  0  0  0  0  0  0  0  0  0  0  # atno 16516 bound_to 5918
   -6.6293   -0.4304   14.8455 LP  0  0  0  0  0  0  0  0  0  0  0  0  # atno 16517 bound_to 5990
   -7.3265    3.9592   12.9474 LP  0  0  0  0  0  0  0  0  0  0  0  0  # atno 16518 bound_to 5993
   -6.0979    3.6170   11.7754 LP  0  0  0  0  0  0  0  0  0  0  0  0  # atno 16519 bound_to 5993
   -6.9063    1.7522   12.0803 LP  0  0  0  0  0  0  0  0  0  0  0  0  # atno 16520 bound_to 6056
  -20.8017    1.2274   26.6054 LP  0  0  0  0  0  0  0  0  0  0  0  0  # atno 16523 bound_to 11156
  -21.4842    0.5047   28.0238 LP  0  0  0  0  0  0  0  0  0  0  0  0  # atno 16524 bound_to 11156
  -18.6483   -0.3073   27.4333 LP  0  0  0  0  0  0  0  0  0  0  0  0  # atno 16525 bound_to 11201
  -16.3591   -0.3870   28.8365 LP  0  0  0  0  0  0  0  0  0  0  0  0  # atno 16528 bound_to 11204
  -16.5249   -1.5272   30.1297 LP  0  0  0  0  0  0  0  0  0  0  0  0  # atno 16529 bound_to 11204
  -17.5723    0.2654   30.4420 LP  0  0  0  0  0  0  0  0  0  0  0  0  # atno 16530 bound_to 11237
  -21.8651   -1.6209   25.9736 LP  0  0  0  0  0  0  0  0  0  0  0  0  # atno 16533 bound_to 11153
  -20.9378   -4.1103   23.9494 LP  0  0  0  0  0  0  0  0  0  0  0  0  # atno 16540 bound_to 11096
  -19.9892   -3.6190   25.3127 LP  0  0  0  0  0  0  0  0  0  0  0  0  # atno 16541 bound_to 11096
  -15.8986   -2.1484   14.0221 LP  0  0  0  0  0  0  0  0  0  0  0  0  # atno 16544 bound_to 10768
  -17.1044   -1.2225   14.8519 LP  0  0  0  0  0  0  0  0  0  0  0  0  # atno 16545 bound_to 10768
  -14.9569   -2.3677   33.0421 LP  0  0  0  0  0  0  0  0  0  0  0  0  # atno 16552 bound_to 11240
  -14.2914   -1.0987   32.0691 LP  0  0  0  0  0  0  0  0  0  0  0  0  # atno 16553 bound_to 11240
  -16.9162   -1.3613   32.1412 LP  0  0  0  0  0  0  0  0  0  0  0  0  # atno 16554 bound_to 11275
  -19.6854   -2.7503   32.8732 LP  0  0  0  0  0  0  0  0  0  0  0  0  # atno 16558 bound_to 11278
  -19.4504   -3.9752   31.6714 LP  0  0  0  0  0  0  0  0  0  0  0  0  # atno 16559 bound_to 11278
  -18.0766   -7.8819   26.3666 LP  0  0  0  0  0  0  0  0  0  0  0  0  # atno 16561 bound_to 9430
  -20.6180   -6.6275   31.1719 LP  0  0  0  0  0  0  0  0  0  0  0  0  # atno 16562 bound_to 11325
  -21.7808   -5.9203   32.2432 LP  0  0  0  0  0  0  0  0  0  0  0  0  # atno 16563 bound_to 11325
  -21.4204   -2.9127   31.2749 LP  0  0  0  0  0  0  0  0  0  0  0  0  # atno 16564 bound_to 11474
  -20.0061   -5.5629   33.3120 LP  0  0  0  0  0  0  0  0  0  0  0  0  # atno 16565 bound_to 11366
  -21.2361   -9.4731   26.3392 LP  0  0  0  0  0  0  0  0  0  0  0  0  # atno 16566 bound_to 9387
  -21.0393   -8.0194   27.2602 LP  0  0  0  0  0  0  0  0  0  0  0  0  # atno 16567 bound_to 9387
  -18.6725   -9.9312   32.1899 LP  0  0  0  0  0  0  0  0  0  0  0  0  # atno 16568 bound_to 11550
  -19.0794  -10.7043   30.8103 LP  0  0  0  0  0  0  0  0  0  0  0  0  # atno 16569 bound_to 11550
  -18.4806  -11.8854   24.5234 LP  0  0  0  0  0  0  0  0  0  0  0  0  # atno 16570 bound_to 9345
  -19.3884  -10.9337   25.6504 LP  0  0  0  0  0  0  0  0  0  0  0  0  # atno 16571 bound_to 9345
  -13.9838  -13.1537   25.3392 LP  0  0  0  0  0  0  0  0  0  0  0  0  # atno 16572 bound_to 9348
  -14.0777  -12.9443   23.7224 LP  0  0  0  0  0  0  0  0  0  0  0  0  # atno 16573 bound_to 9348
  -19.0951   -8.9116   23.3066 LP  0  0  0  0  0  0  0  0  0  0  0  0  # atno 16574 bound_to 9481
   -7.9854   -3.5860   16.5284 LP  0  0  0  0  0  0  0  0  0  0  0  0  # atno 16579 bound_to 5720
   -8.9541   -3.8458   15.1163 LP  0  0  0  0  0  0  0  0  0  0  0  0  # atno 16580 bound_to 5720
   -2.2053  -10.3425   22.2666 LP  0  0  0  0  0  0  0  0  0  0  0  0  # atno 16587 bound_to 15466
   -1.4871  -10.6316   20.8289 LP  0  0  0  0  0  0  0  0  0  0  0  0  # atno 16588 bound_to 15466
  -11.2316  -10.8522   17.2298 LP  0  0  0  0  0  0  0  0  0  0  0  0  # atno 16591 bound_to 7831
   -3.9364  -13.8469   27.0106 LP  0  0  0  0  0  0  0  0  0  0  0  0  # atno 16592 bound_to 1821
   -2.7402  -13.1094   25.9980 LP  0  0  0  0  0  0  0  0  0  0  0  0  # atno 16593 bound_to 1821
   -7.8574  -13.7452   17.5611 LP  0  0  0  0  0  0  0  0  0  0  0  0  # atno 16594 bound_to 7834
   -7.2816  -12.3618   18.4299 LP  0  0  0  0  0  0  0  0  0  0  0  0  # atno 16595 bound_to 7834
   -9.6872   -8.0555   14.6112 LP  0  0  0  0  0  0  0  0  0  0  0  0  # atno 16596 bound_to 5717
   -6.5470   -6.2357   16.2489 LP  0  0  0  0  0  0  0  0  0  0  0  0  # atno 16597 bound_to 5767
   -0.7223  -13.5628   18.7998 LP  0  0  0  0  0  0  0  0  0  0  0  0  # atno 16600 bound_to 1745
   -0.4734  -12.1911   19.8277 LP  0  0  0  0  0  0  0  0  0  0  0  0  # atno 16601 bound_to 1745
   -0.5877  -13.3438   24.5455 LP  0  0  0  0  0  0  0  0  0  0  0  0  # atno 16602 bound_to 1818
   -4.2223   -7.0013   14.4760 LP  0  0  0  0  0  0  0  0  0  0  0  0  # atno 16603 bound_to 5772
   -3.0627   -6.0522   13.8271 LP  0  0  0  0  0  0  0  0  0  0  0  0  # atno 16604 bound_to 5772
    1.9907   -7.9814   17.1274 LP  0  0  0  0  0  0  0  0  0  0  0  0  # atno 16605 bound_to 15403
    0.9741  -15.0435   21.0392 LP  0  0  0  0  0  0  0  0  0  0  0  0  # atno 16606 bound_to 1791
   -3.9003   -9.9344   14.2136 LP  0  0  0  0  0  0  0  0  0  0  0  0  # atno 16607 bound_to 5617
   -5.2529   -7.9474   13.1819 LP  0  0  0  0  0  0  0  0  0  0  0  0  # atno 16608 bound_to 5620
   -6.8186   -7.2186   13.3142 LP  0  0  0  0  0  0  0  0  0  0  0  0  # atno 16609 bound_to 5620
   -9.1360   -9.7737   15.5837 LP  0  0  0  0  0  0  0  0  0  0  0  0  # atno 16610 bound_to 7788
  -10.1968  -10.9315   14.8527 LP  0  0  0  0  0  0  0  0  0  0  0  0  # atno 16611 bound_to 7788
  -10.5926  -12.7405   18.3275 LP  0  0  0  0  0  0  0  0  0  0  0  0  # atno 16612 bound_to 7874
    0.9892  -15.9826   24.1016 LP  0  0  0  0  0  0  0  0  0  0  0  0  # atno 16613 bound_to 1794
   -0.0315  -16.5813   22.8368 LP  0  0  0  0  0  0  0  0  0  0  0  0  # atno 16614 bound_to 1794
    0.2877  -14.6280   28.8392 LP  0  0  0  0  0  0  0  0  0  0  0  0  # atno 16615 bound_to 1824
   -1.2196  -14.9543   28.3024 LP  0  0  0  0  0  0  0  0  0  0  0  0  # atno 16616 bound_to 1824
   -2.9287  -16.0705   26.1536 LP  0  0  0  0  0  0  0  0  0  0  0  0  # atno 16617 bound_to 1854
  -15.2245  -13.9519   27.3282 LP  0  0  0  0  0  0  0  0  0  0  0  0  # atno 16622 bound_to 9318
  -15.9055  -15.4183   27.9494 LP  0  0  0  0  0  0  0  0  0  0  0  0  # atno 16623 bound_to 9318
  -18.0374  -13.5898   25.4547 LP  0  0  0  0  0  0  0  0  0  0  0  0  # atno 16624 bound_to 9342
  -21.0976   -7.8442   22.0778 LP  0  0  0  0  0  0  0  0  0  0  0  0  # atno 16627 bound_to 9433
  -21.8503   -7.3561   23.5595 LP  0  0  0  0  0  0  0  0  0  0  0  0  # atno 16628 bound_to 9433
  -17.6529   -6.9195   18.0239 LP  0  0  0  0  0  0  0  0  0  0  0  0  # atno 16629 bound_to 9492
  -16.9504   -8.1726   17.2476 LP  0  0  0  0  0  0  0  0  0  0  0  0  # atno 16630 bound_to 9492
  -17.0406  -13.1378   20.3121 LP  0  0  0  0  0  0  0  0  0  0  0  0  # atno 16631 bound_to 7667
  -17.5885  -12.0585   19.0732 LP  0  0  0  0  0  0  0  0  0  0  0  0  # atno 16632 bound_to 7667
  -15.0789  -13.5114   18.8779 LP  0  0  0  0  0  0  0  0  0  0  0  0  # atno 16634 bound_to 7723
  -13.5858  -12.9424   16.3315 LP  0  0  0  0  0  0  0  0  0  0  0  0  # atno 16635 bound_to 7726
  -12.0479  -12.1742   16.5428 LP  0  0  0  0  0  0  0  0  0  0  0  0  # atno 16636 bound_to 7726
  -20.6481   -5.6782   17.2802 LP  0  0  0  0  0  0  0  0  0  0  0  0  # atno 16637 bound_to 10539
  -20.1502   -6.0529   15.6641 LP  0  0  0  0  0  0  0  0  0  0  0  0  # atno 16638 bound_to 10539
   -5.0980  -15.3808   32.0762 LP  0  0  0  0  0  0  0  0  0  0  0  0  # atno 16639 bound_to 1884
   -6.1658  -15.6359   33.2851 LP  0  0  0  0  0  0  0  0  0  0  0  0  # atno 16640 bound_to 1884
  -16.7581  -16.9997   27.6446 LP  0  0  0  0  0  0  0  0  0  0  0  0  # atno 16641 bound_to 9315
   -5.3827  -16.7291   30.0454 LP  0  0  0  0  0  0  0  0  0  0  0  0  # atno 16642 bound_to 1879
   -1.9199  -16.3123   30.4674 LP  0  0  0  0  0  0  0  0  0  0  0  0  # atno 16643 bound_to 1857
   -1.7065  -17.3922   29.1302 LP  0  0  0  0  0  0  0  0  0  0  0  0  # atno 16644 bound_to 1857
  -17.6096  -16.7796   22.9039 LP  0  0  0  0  0  0  0  0  0  0  0  0  # atno 16645 bound_to 7565
  -18.1350  -18.2934   23.5613 LP  0  0  0  0  0  0  0  0  0  0  0  0  # atno 16646 bound_to 7565
  -20.5736  -17.7056   27.4001 LP  0  0  0  0  0  0  0  0  0  0  0  0  # atno 16647 bound_to 9289
  -19.7694  -17.2251   25.9432 LP  0  0  0  0  0  0  0  0  0  0  0  0  # atno 16648 bound_to 9289
  -18.8213  -19.6536   32.0935 LP  0  0  0  0  0  0  0  0  0  0  0  0  # atno 16649 bound_to 9236
  -18.0246  -18.4618   31.1215 LP  0  0  0  0  0  0  0  0  0  0  0  0  # atno 16650 bound_to 9236
  -20.5426  -18.4072   28.9318 LP  0  0  0  0  0  0  0  0  0  0  0  0  # atno 16653 bound_to 9286
  -21.2339  -21.2138   30.4298 LP  0  0  0  0  0  0  0  0  0  0  0  0  # atno 16654 bound_to 9233
  -11.8966  -24.0152   33.9088 LP  0  0  0  0  0  0  0  0  0  0  0  0  # atno 16655 bound_to 3365
  -10.9778  -22.5476   33.9538 LP  0  0  0  0  0  0  0  0  0  0  0  0  # atno 16656 bound_to 3365
   -7.1358  -24.0369   35.9295 LP  0  0  0  0  0  0  0  0  0  0  0  0  # atno 16657 bound_to 3362
   -4.4404  -19.4454   31.4890 LP  0  0  0  0  0  0  0  0  0  0  0  0  # atno 16658 bound_to 1922

> <Gold.Score>
     Fitness  S(hb_ext) S(vdw_ext)  S(hb_int)    S(int)      intcor
     26.40       0.00      19.20       0.00      -0.00      -0.76

> <Gold.Goldscore.Fitness>
26.4010

> <Gold.Goldscore.Internal.Vdw>
-0.3714

> <Gold.Goldscore.Internal.Torsion>
-0.3930

> <Gold.Goldscore.External.Vdw>
19.2043

> <Gold.Goldscore.Internal.HBond>
0.0000

> <Gold.Goldscore.External.HBond>
0.0000

> <Gold.Goldscore.Internal.Correction>
-0.7595

> <Gold.Goldscore.Internal.Vdw.Weighted>
-0.3714

> <Gold.Goldscore.Internal.Torsion.Weighted>
-0.3930

> <Gold.Goldscore.External.Vdw.Weighted>
26.4059

> <Gold.Goldscore.Internal.HBond.Weighted>
0.0000

> <Gold.Goldscore.External.HBond.Weighted>
0.0000

> <Gold.Goldscore.Internal.Correction.Weighted>
-0.7595

> <Gold.Rescore>
     Score     S(PLP)   S(hbond)     S(cho)   S(metal)  DE(clash)   DE(tors)     intcor
     23.96     -24.23       0.00       0.00       0.00       0.00       0.14       ----

> <Gold.PLP.Fitness>
23.9584

> <Gold.PLP.PLP>
-24.2337

> <Gold.PLP.part.hbond>
-0.8289

> <Gold.PLP.part.metal>
0.0000

> <Gold.PLP.part.buried>
-3.2220

> <Gold.PLP.part.nonpolar>
-20.5172

> <Gold.PLP.part.repulsive>
0.1891

> <Gold.PLP.ligand.clash>
0.0000

> <Gold.PLP.ligand.torsion>
0.1377

> <Gold.PLP.Chemscore.Hbond>
0.0000

> <Gold.PLP.Chemscore.CHOScore>
0.0000

> <Gold.PLP.Chemscore.Metal>
0.0000

> <Gold.PLP.Chemscore.Internal.Correction>
   9.000000E+99

