#       Name:                CT1002167954
#       Creating user name   hitesit
#       Creation time:       Sun Apr 16 22:52:06 2023


#       File generated by GOLD software.
#

@<TRIPOS>MOLECULE
CT1002167954|ligand_prepared|mol2|1|dock8
    29    30     1
SMALL
NO_CHARGES


@<TRIPOS>ATOM
      1 C1         -13.7191   4.9279  16.9633 C.3            1 RES1               0.0000
      2 C2         -13.6106   3.7831  17.9912 C.ar           1 RES1               0.0000
      3 C3         -14.4953   4.3655  15.7761 C.2            1 RES1               0.0000
      4 C4         -14.4215   6.0774  17.6775 C.2            1 RES1               0.0000
      5 C5         -12.3523   5.4442  16.4565 C.3            1 RES1               0.0000
      6 C6         -12.6849   2.7589  17.8160 C.ar           1 RES1               0.0000
      7 C7         -14.4261   3.7392  19.1189 C.ar           1 RES1               0.0000
      8 N8         -15.7864   4.7740  15.6146 N.am           1 RES1               0.0000
      9 O9         -13.9948   3.5458  15.0159 O.2            1 RES1               0.0000
     10 N10        -15.6638   6.4465  17.2325 N.am           1 RES1               0.0000
     11 O11        -13.9174   6.6558  18.6322 O.2            1 RES1               0.0000
     12 C12        -12.4457   6.7183  15.6318 C.3            1 RES1               0.0000
     13 C13        -12.5762   1.7296  18.7363 C.ar           1 RES1               0.0000
     14 C14        -14.3159   2.7087  20.0379 C.ar           1 RES1               0.0000
     15 C15        -16.3911   5.8267  16.2531 C.2            1 RES1               0.0000
     16 C16        -13.3912   1.7040  19.8480 C.ar           1 RES1               0.0000
     17 O17        -17.5249   6.1835  15.9458 O.2            1 RES1               0.0000
     18 H18        -11.7025   5.6297  17.3206 H              1 RES1               0.0000
     19 H19        -11.8837   4.6623  15.8463 H              1 RES1               0.0000
     20 H20        -12.0367   2.7609  16.9460 H              1 RES1               0.0000
     21 H21        -15.1614   4.5184  19.2883 H              1 RES1               0.0000
     22 H22        -16.3548   4.2480  14.9584 H              1 RES1               0.0000
     23 H23        -16.0855   7.2585  17.6719 H              1 RES1               0.0000
     24 H24        -11.4594   7.0371  15.3014 H              1 RES1               0.0000
     25 H25        -13.0645   6.5629  14.7505 H              1 RES1               0.0000
     26 H26        -12.8844   7.5246  16.2161 H              1 RES1               0.0000
     27 H27        -11.8477   0.9405  18.5816 H              1 RES1               0.0000
     28 H28        -14.9598   2.6923  20.9110 H              1 RES1               0.0000
     29 H29        -13.3056   0.8977  20.5690 H              1 RES1               0.0000
@<TRIPOS>BOND
    1    1    2 1     
    2    1    3 1     
    3    1    4 1     
    4    1    5 1     
    5    2    6 ar    
    6    2    7 ar    
    7    3    8 1     
    8    3    9 2     
    9    4   10 1     
   10    4   11 2     
   11    5   12 1     
   12    5   18 1     
   13    5   19 1     
   14    6   13 ar    
   15    6   20 1     
   16    7   14 ar    
   17    7   21 1     
   18    8   15 1     
   19    8   22 1     
   20   10   15 1     
   21   10   23 1     
   22   12   24 1     
   23   12   25 1     
   24   12   26 1     
   25   13   16 ar    
   26   13   27 1     
   27   14   16 ar    
   28   14   28 1     
   29   15   17 2     
   30   16   29 1     
@<TRIPOS>SUBSTRUCTURE
      1 RES1           1
@<TRIPOS>SET
DONOR_HYDROGENS      STATIC     ATOMS    <user>   **** ""
2 22 23
ATOM$RED        STATIC     ATOMS    COLORGROUP SYSTEM
2 22 23
@<TRIPOS>COMMENT
> <Gold.Version>
2022.3.0

> <Gold.Id.Protein>
unknown|3mvj_clean|pdb

> <Gold.Protein.RotatedTorsions>
[ 11826 11799 11798 11795 ] final   33.29 input   60.01 | X-H torsion
[ 11911 11856 11855 11854 ] final -179.04 input   60.02 | X-H torsion
[ 10977 10959 10958 10956 ] final  -53.91 input   60.00 | X-H torsion
[ 10969 10948 10949 10950 ] final -101.57 input   32.02 | X-H torsion
[ 10737 10719 10718 10716 ] final   15.01 input   60.01 | X-H torsion
[ 12076 12056 12057 12058 ] final   44.74 input   63.02 | X-H torsion
[ 10918 10911 10912 10913 ] final  -25.40 input  -92.90 | X-H torsion
[ 6164 6140 6141 6142 ] final  146.45 input   39.58 | X-H torsion
[ 6112 6105 6106 6107 ] final   44.57 input  -69.34 | X-H torsion
[ 5955 5918 5919 5920 ] final  147.76 input  125.26 | X-H torsion
[ 6027 5990 5991 5992 ] final  104.77 input  110.40 | X-H torsion
[ 6075 6056 6057 6058 ] final  -44.83 input  107.04 | X-H torsion
[ 11686 11631 11630 11629 ] final   99.40 input   60.02 | X-H torsion
[ 11211 11201 11202 11203 ] final  -28.97 input   18.84 | X-H torsion
[ 11249 11237 11238 11239 ] final  -82.77 input  111.29 | X-H torsion
[ 11173 11153 11154 11155 ] final   60.03 input   30.50 | X-H torsion
[ 11292 11275 11276 11277 ] final -153.81 input   58.53 | X-H torsion
[ 9451 9430 9431 9432 ] final -155.72 input  110.06 | X-H torsion
[ 11493 11474 11475 11476 ] final -132.96 input  115.95 | X-H torsion
[ 11385 11366 11367 11368 ] final   34.82 input  117.79 | X-H torsion
[ 11568 11550 11549 11547 ] final  -13.15 input   59.97 | X-H torsion
[ 9369 9348 9346 9343 ] final  109.23 input   60.02 | X-H torsion
[ 9511 9481 9482 9483 ] final   44.85 input   75.78 | X-H torsion
[ 15475 15466 15465 15463 ] final  100.78 input   60.00 | X-H torsion
[ 7755 7731 7730 7729 ] final  -14.51 input   60.02 | X-H torsion
[ 7846 7831 7832 7833 ] final   98.50 input  113.97 | X-H torsion
[ 5737 5717 5718 5719 ] final  -49.10 input  137.93 | X-H torsion
[ 5778 5767 5768 5769 ] final  126.30 input  116.46 | X-H torsion
[ 1839 1818 1819 1820 ] final  -39.27 input   43.70 | X-H torsion
[ 5782 5772 5771 5768 ] final  -15.97 input   59.97 | X-H torsion
[ 15411 15403 15404 15405 ] final  -63.70 input  102.24 | X-H torsion
[ 1801 1791 1792 1793 ] final  -33.05 input  -10.55 | X-H torsion
[ 5632 5617 5618 5619 ] final  149.59 input   93.34 | X-H torsion
[ 7884 7874 7875 7876 ] final  127.10 input   68.03 | X-H torsion
[ 1845 1824 1822 1819 ] final  -83.42 input   60.02 | X-H torsion
[ 1864 1854 1855 1856 ] final  153.12 input   57.50 | X-H torsion
[ 9363 9342 9343 9344 ] final   69.65 input   55.58 | X-H torsion
[ 9519 9492 9491 9489 ] final -149.51 input   60.02 | X-H torsion
[ 7745 7723 7724 7725 ] final -120.00 input   17.81 | X-H torsion
[ 1896 1884 1883 1880 ] final   52.98 input   60.01 | X-H torsion
[ 9325 9315 9316 9317 ] final  156.45 input  -36.21 | X-H torsion
[ 1892 1879 1880 1881 ] final  134.78 input   98.21 | X-H torsion
[ 9302 9286 9287 9288 ] final  -65.65 input   37.00 | X-H torsion
[ 9263 9233 9234 9235 ] final  -36.86 input   95.32 | X-H torsion
[ 3370 3362 3363 3364 ] final   26.21 input   97.92 | X-H torsion
[ 1947 1922 1923 1924 ] final  -91.04 input  104.43 | X-H torsion
[ 12159 12148 12149 12150 ] final   19.01 input  116.04 | X-H torsion
[ 11673 11649 11648 11647 ] final   52.96 input   59.99 | X-H torsion
[ 12008 11984 11985 11986 ] final  135.57 input   61.04 | X-H torsion
[ 11113 11093 11094 11095 ] final    2.93 input   39.50 | X-H torsion
[ 7924 7916 7917 7918 ] final  -88.03 input   66.66 | X-H torsion
[ 8650 8630 8631 8632 ] final   52.81 input   75.31 | X-H torsion
[ 9566 9536 9537 9538 ] final -117.28 input  103.50 | X-H torsion
[ 16472 10886 10885 10884 ] final  115.31 input    0.00 | X-H torsion
[ 16475 11004 11003 11002 ] final  -92.81 input    0.00 | X-H torsion
[ 16477 10914 10913 10912 ] final   -4.22 input    0.00 | X-H torsion
[ 16479 10951 10950 10949 ] final    7.03 input   -0.00 | X-H torsion
[ 16484 11987 11986 11985 ] final   82.97 input    0.00 | X-H torsion
[ 16486 12059 12058 12057 ] final -158.91 input   -0.00 | X-H torsion
[ 16490 11046 11045 11044 ] final -149.06 input    0.00 | X-H torsion
[ 16500 6108 6107 6106 ] final  123.75 input    0.00 | X-H torsion
[ 16503 5921 5920 5919 ] final    7.03 input   -0.00 | X-H torsion
[ 16506 6059 6058 6057 ] final    8.44 input    0.00 | X-H torsion
[ 16510 5858 5857 5856 ] final  -16.87 input    0.00 | X-H torsion
[ 16518 5993 5992 5991 ] final   84.37 input   -0.00 | X-H torsion
[ 16523 11156 11155 11154 ] final   60.47 input    0.00 | X-H torsion
[ 16528 11204 11203 11202 ] final   -1.41 input    0.00 | X-H torsion
[ 16540 11096 11095 11094 ] final  -26.72 input   -0.00 | X-H torsion
[ 16544 10768 10767 10766 ] final    4.22 input   -0.00 | X-H torsion
[ 16552 11240 11239 11238 ] final   63.28 input    0.00 | X-H torsion
[ 16558 11278 11277 11276 ] final -165.94 input   -0.00 | X-H torsion
[ 16562 11325 11324 11323 ] final  142.03 input   -0.00 | X-H torsion
[ 16566 9387 9386 9385 ] final   85.78 input   -0.00 | X-H torsion
[ 16570 9345 9344 9343 ] final  157.50 input    0.00 | X-H torsion
[ 16579 5720 5719 5718 ] final  143.44 input    0.00 | X-H torsion
[ 16592 1821 1820 1819 ] final  -42.19 input    0.00 | X-H torsion
[ 16594 7834 7833 7832 ] final   73.12 input    0.00 | X-H torsion
[ 16600 1745 1744 1743 ] final  -25.31 input    0.00 | X-H torsion
[ 16608 5620 5619 5618 ] final  -19.69 input   -0.00 | X-H torsion
[ 16610 7788 7787 7786 ] final  156.09 input   -0.00 | X-H torsion
[ 16613 1794 1793 1792 ] final -167.34 input   -0.00 | X-H torsion
[ 16622 9318 9317 9316 ] final    2.81 input   -0.00 | X-H torsion
[ 16627 9433 9432 9431 ] final   21.09 input    0.00 | X-H torsion
[ 16631 7667 7666 7665 ] final   60.47 input   -0.00 | X-H torsion
[ 16635 7726 7725 7724 ] final  156.09 input    0.00 | X-H torsion
[ 16637 10539 10538 10537 ] final   75.94 input   -0.00 | X-H torsion
[ 16643 1857 1856 1855 ] final   90.00 input    0.00 | X-H torsion
[ 16645 7565 7564 7563 ] final  -78.75 input    0.00 | X-H torsion
[ 16647 9289 9288 9287 ] final   23.91 input    0.00 | X-H torsion
[ 16649 9236 9235 9234 ] final  -92.81 input    0.00 | X-H torsion
[ 16655 3365 3364 3363 ] final  -12.66 input    0.00 | X-H torsion

> <Gold.Protein.ActiveResidues>
 LEU49   GLY50   THR51   GLY52   SER53   PHE54   VAL57   LEU82   LYS83   GLN84  
 HIS87   GLU127  PHE129  SER130  LEU132  ARG133  ARG134  ILE135  GLY136  ARG137 
 ARG165  ASP166  LEU167  LYS168  PRO169  GLU170  ASN171  LEU172  LEU173  ASP184 
 GLY186  PHE187  TPO197  LEU198  CYS199  GLY200  THR201  PRO202  GLU203  TYR204 
 LEU205  ILE209  ILE210  VAL226  LEU227  TYR229  GLU230  ALA233  GLY234  TYR235 
 PRO236  PRO237  PHE238  PHE239  ALA240  ASP241  GLN242  PRO243  ILE244  GLN245 
 ILE246  TYR247  GLU248  LYS249  ILE250  VAL251  SER252  LYS254  ARG256  PHE257 
 PRO258  SER259  PHE327  ASP328  TYR330 

> <Gold.Protein.RotatedAtoms>
    1.5812  -14.2734   21.7729 H   0  0  0  0  0  0  0  0  0  0  0  0  # atno 1801 bound_to 1791
   -1.7665  -14.2653   23.9331 H   0  0  0  0  0  0  0  0  0  0  0  0  # atno 1839 bound_to 1818
   -0.6344  -13.4533   28.1673 H   0  0  0  0  0  0  0  0  0  0  0  0  # atno 1845 bound_to 1824
   -2.9823  -16.1417   26.1487 H   0  0  0  0  0  0  0  0  0  0  0  0  # atno 1864 bound_to 1854
   -5.2654  -16.4450   30.1482 H   0  0  0  0  0  0  0  0  0  0  0  0  # atno 1892 bound_to 1879
   -6.0608  -15.8359   31.4549 H   0  0  0  0  0  0  0  0  0  0  0  0  # atno 1896 bound_to 1884
   -4.1177  -19.4045   31.4557 H   0  0  0  0  0  0  0  0  0  0  0  0  # atno 1947 bound_to 1922
   -8.0312  -25.0913   35.8107 H   0  0  0  0  0  0  0  0  0  0  0  0  # atno 3370 bound_to 3362
   -3.8857  -10.5412   14.1559 H   0  0  0  0  0  0  0  0  0  0  0  0  # atno 5632 bound_to 5617
   -8.9846   -7.1491   13.8599 H   0  0  0  0  0  0  0  0  0  0  0  0  # atno 5737 bound_to 5717
   -6.2905   -6.5931   15.5489 H   0  0  0  0  0  0  0  0  0  0  0  0  # atno 5778 bound_to 5767
   -4.9010   -6.3536   13.8212 H   0  0  0  0  0  0  0  0  0  0  0  0  # atno 5782 bound_to 5772
   -9.1123   -2.4848   15.2504 H   0  0  0  0  0  0  0  0  0  0  0  0  # atno 5955 bound_to 5918
   -6.8921   -0.6098   14.2251 H   0  0  0  0  0  0  0  0  0  0  0  0  # atno 6027 bound_to 5990
   -7.5124    1.8545   12.6422 H   0  0  0  0  0  0  0  0  0  0  0  0  # atno 6075 bound_to 6056
  -10.3142    2.0326   11.5171 H   0  0  0  0  0  0  0  0  0  0  0  0  # atno 6112 bound_to 6105
  -13.2587    2.8983   12.2268 H   0  0  0  0  0  0  0  0  0  0  0  0  # atno 6164 bound_to 6140
  -16.0782  -13.0823   17.8384 H   0  0  0  0  0  0  0  0  0  0  0  0  # atno 7745 bound_to 7723
  -12.2486  -11.5462   24.0943 H   0  0  0  0  0  0  0  0  0  0  0  0  # atno 7755 bound_to 7731
  -12.5967  -13.0897   24.5879 H   0  0  0  0  0  0  0  0  0  0  0  0  # atno 7756 bound_to 7731
  -11.0454  -12.6844   24.1650 H   0  0  0  0  0  0  0  0  0  0  0  0  # atno 7757 bound_to 7731
  -11.3888  -10.2564   18.3429 H   0  0  0  0  0  0  0  0  0  0  0  0  # atno 7846 bound_to 7831
  -10.8293  -12.7209   18.1800 H   0  0  0  0  0  0  0  0  0  0  0  0  # atno 7884 bound_to 7874
   -9.8297  -14.3841   15.4470 H   0  0  0  0  0  0  0  0  0  0  0  0  # atno 7924 bound_to 7916
  -13.6414  -22.1692   22.5021 H   0  0  0  0  0  0  0  0  0  0  0  0  # atno 8650 bound_to 8630
  -21.0052  -21.2244   30.5029 H   0  0  0  0  0  0  0  0  0  0  0  0  # atno 9263 bound_to 9233
  -20.2236  -18.1002   29.7328 H   0  0  0  0  0  0  0  0  0  0  0  0  # atno 9302 bound_to 9286
  -18.3715  -17.4735   27.2245 H   0  0  0  0  0  0  0  0  0  0  0  0  # atno 9325 bound_to 9315
  -17.5696  -13.6814   24.8067 H   0  0  0  0  0  0  0  0  0  0  0  0  # atno 9363 bound_to 9342
  -14.8500  -13.5712   23.7262 H   0  0  0  0  0  0  0  0  0  0  0  0  # atno 9369 bound_to 9348
  -18.4749   -7.8628   26.6042 H   0  0  0  0  0  0  0  0  0  0  0  0  # atno 9451 bound_to 9430
  -19.4454   -9.9704   24.4528 H   0  0  0  0  0  0  0  0  0  0  0  0  # atno 9511 bound_to 9481
  -17.6969   -7.5553   17.3889 H   0  0  0  0  0  0  0  0  0  0  0  0  # atno 9519 bound_to 9492
  -20.9596  -11.6569   23.8348 H   0  0  0  0  0  0  0  0  0  0  0  0  # atno 9566 bound_to 9536
  -23.0419    1.6661   18.0474 H   0  0  0  0  0  0  0  0  0  0  0  0  # atno 10737 bound_to 10719
  -17.6878    0.2945   14.8870 H   0  0  0  0  0  0  0  0  0  0  0  0  # atno 10918 bound_to 10911
  -16.1534    0.1545   16.5662 H   0  0  0  0  0  0  0  0  0  0  0  0  # atno 10969 bound_to 10948
  -22.4239    4.2325   17.0306 H   0  0  0  0  0  0  0  0  0  0  0  0  # atno 10977 bound_to 10959
  -21.7980   -2.5078   22.3313 H   0  0  0  0  0  0  0  0  0  0  0  0  # atno 11113 bound_to 11093
  -21.4861   -0.5110   25.0944 H   0  0  0  0  0  0  0  0  0  0  0  0  # atno 11173 bound_to 11153
  -18.2282   -0.8392   27.8258 H   0  0  0  0  0  0  0  0  0  0  0  0  # atno 11211 bound_to 11201
  -17.5237    0.3561   30.3884 H   0  0  0  0  0  0  0  0  0  0  0  0  # atno 11249 bound_to 11237
  -16.4489   -0.8425   33.1836 H   0  0  0  0  0  0  0  0  0  0  0  0  # atno 11292 bound_to 11275
  -19.7904   -4.9991   34.0411 H   0  0  0  0  0  0  0  0  0  0  0  0  # atno 11385 bound_to 11366
  -21.9661   -2.6140   31.1916 H   0  0  0  0  0  0  0  0  0  0  0  0  # atno 11493 bound_to 11474
  -19.1068  -10.7539   30.8211 H   0  0  0  0  0  0  0  0  0  0  0  0  # atno 11568 bound_to 11550
  -24.2793    2.3608   29.1982 H   0  0  0  0  0  0  0  0  0  0  0  0  # atno 11673 bound_to 11649
  -24.2529    3.0687   27.6990 H   0  0  0  0  0  0  0  0  0  0  0  0  # atno 11674 bound_to 11649
  -25.5907    2.2236   28.1928 H   0  0  0  0  0  0  0  0  0  0  0  0  # atno 11675 bound_to 11649
   -8.7129    9.1512   27.0142 H   0  0  0  0  0  0  0  0  0  0  0  0  # atno 11686 bound_to 11631
   -9.2559    7.9684   25.9886 H   0  0  0  0  0  0  0  0  0  0  0  0  # atno 11687 bound_to 11631
   -7.8714    8.8045   25.6285 H   0  0  0  0  0  0  0  0  0  0  0  0  # atno 11688 bound_to 11631
  -13.1165   17.0160   22.8155 H   0  0  0  0  0  0  0  0  0  0  0  0  # atno 11826 bound_to 11799
  -18.0988   16.3980   24.3775 H   0  0  0  0  0  0  0  0  0  0  0  0  # atno 11911 bound_to 11856
  -16.7895   15.4225   24.0910 H   0  0  0  0  0  0  0  0  0  0  0  0  # atno 11912 bound_to 11856
  -17.8517   15.0477   25.3073 H   0  0  0  0  0  0  0  0  0  0  0  0  # atno 11913 bound_to 11856
  -28.5290    1.3637   20.6421 H   0  0  0  0  0  0  0  0  0  0  0  0  # atno 12008 bound_to 11984
  -28.3559    3.9449   16.7537 H   0  0  0  0  0  0  0  0  0  0  0  0  # atno 12076 bound_to 12056
  -24.2914    6.8999   12.4156 H   0  0  0  0  0  0  0  0  0  0  0  0  # atno 12159 bound_to 12148
    2.0013   -7.9526   17.1145 H   0  0  0  0  0  0  0  0  0  0  0  0  # atno 15411 bound_to 15403
   -2.0265  -10.8892   21.7432 H   0  0  0  0  0  0  0  0  0  0  0  0  # atno 15475 bound_to 15466
  -12.3419   15.6617   22.3535 LP  0  0  0  0  0  0  0  0  0  0  0  0  # atno 16466 bound_to 11799
  -13.4347   15.6076   23.5657 LP  0  0  0  0  0  0  0  0  0  0  0  0  # atno 16467 bound_to 11799
  -21.4174    5.4913   16.8053 LP  0  0  0  0  0  0  0  0  0  0  0  0  # atno 16468 bound_to 10959
  -22.1516    5.2774   18.2481 LP  0  0  0  0  0  0  0  0  0  0  0  0  # atno 16469 bound_to 10959
  -17.2701    3.3017   15.3084 LP  0  0  0  0  0  0  0  0  0  0  0  0  # atno 16472 bound_to 10886
  -17.4353    3.6355   13.6168 LP  0  0  0  0  0  0  0  0  0  0  0  0  # atno 16473 bound_to 10886
  -17.4866    1.2921   16.5985 LP  0  0  0  0  0  0  0  0  0  0  0  0  # atno 16474 bound_to 10948
  -20.6402   -0.6225   21.9321 LP  0  0  0  0  0  0  0  0  0  0  0  0  # atno 16475 bound_to 11004
  -20.6563    0.1954   20.4054 LP  0  0  0  0  0  0  0  0  0  0  0  0  # atno 16476 bound_to 11004
  -13.7929    1.2263   16.7429 LP  0  0  0  0  0  0  0  0  0  0  0  0  # atno 16477 bound_to 10914
  -14.7180    1.0891   18.2007 LP  0  0  0  0  0  0  0  0  0  0  0  0  # atno 16478 bound_to 10914
  -19.0733   -0.1639   16.9003 LP  0  0  0  0  0  0  0  0  0  0  0  0  # atno 16479 bound_to 10951
  -20.0100   -1.2412   17.8812 LP  0  0  0  0  0  0  0  0  0  0  0  0  # atno 16480 bound_to 10951
  -24.3027    1.0054   18.8356 LP  0  0  0  0  0  0  0  0  0  0  0  0  # atno 16482 bound_to 10719
  -24.5168    1.6719   17.3603 LP  0  0  0  0  0  0  0  0  0  0  0  0  # atno 16483 bound_to 10719
  -26.4496    0.7905   17.7389 LP  0  0  0  0  0  0  0  0  0  0  0  0  # atno 16484 bound_to 11987
  -25.5250    2.2140   18.0834 LP  0  0  0  0  0  0  0  0  0  0  0  0  # atno 16485 bound_to 11987
  -26.5840    6.1937   14.7104 LP  0  0  0  0  0  0  0  0  0  0  0  0  # atno 16486 bound_to 12059
  -27.6542    5.4173   15.8292 LP  0  0  0  0  0  0  0  0  0  0  0  0  # atno 16487 bound_to 12059
  -24.2289   -0.3963   23.1675 LP  0  0  0  0  0  0  0  0  0  0  0  0  # atno 16490 bound_to 11046
  -25.1562   -0.7196   21.7407 LP  0  0  0  0  0  0  0  0  0  0  0  0  # atno 16491 bound_to 11046
  -27.6692    2.4626   17.3720 LP  0  0  0  0  0  0  0  0  0  0  0  0  # atno 16492 bound_to 12056
  -17.1548    1.1939   13.4827 LP  0  0  0  0  0  0  0  0  0  0  0  0  # atno 16493 bound_to 10911
  -13.9762    1.2389   13.8533 LP  0  0  0  0  0  0  0  0  0  0  0  0  # atno 16500 bound_to 6108
  -12.4017    0.5271   13.9735 LP  0  0  0  0  0  0  0  0  0  0  0  0  # atno 16501 bound_to 6108
  -12.1708    1.9832   11.2096 LP  0  0  0  0  0  0  0  0  0  0  0  0  # atno 16502 bound_to 6140
   -9.1274    2.0478   16.0523 LP  0  0  0  0  0  0  0  0  0  0  0  0  # atno 16503 bound_to 5921
   -7.9937    2.5730   14.8527 LP  0  0  0  0  0  0  0  0  0  0  0  0  # atno 16504 bound_to 5921
   -9.3789    2.2846   12.9754 LP  0  0  0  0  0  0  0  0  0  0  0  0  # atno 16505 bound_to 6105
   -9.5169    4.4274   10.2605 LP  0  0  0  0  0  0  0  0  0  0  0  0  # atno 16506 bound_to 6059
  -10.5587    4.6078   11.6325 LP  0  0  0  0  0  0  0  0  0  0  0  0  # atno 16507 bound_to 6059
  -10.3783    0.1329   12.5934 LP  0  0  0  0  0  0  0  0  0  0  0  0  # atno 16510 bound_to 5858
  -10.1374    0.6397   14.2320 LP  0  0  0  0  0  0  0  0  0  0  0  0  # atno 16511 bound_to 5858
   -9.2769   -1.2717   14.0052 LP  0  0  0  0  0  0  0  0  0  0  0  0  # atno 16516 bound_to 5918
   -7.7334    0.6657   15.0851 LP  0  0  0  0  0  0  0  0  0  0  0  0  # atno 16517 bound_to 5990
   -6.0089    3.6171   11.8859 LP  0  0  0  0  0  0  0  0  0  0  0  0  # atno 16518 bound_to 5993
   -7.4155    3.9590   12.8370 LP  0  0  0  0  0  0  0  0  0  0  0  0  # atno 16519 bound_to 5993
   -7.5597    0.4530   11.6104 LP  0  0  0  0  0  0  0  0  0  0  0  0  # atno 16520 bound_to 6056
  -21.7514    0.2544   27.2397 LP  0  0  0  0  0  0  0  0  0  0  0  0  # atno 16523 bound_to 11156
  -20.5344    1.4777   27.3896 LP  0  0  0  0  0  0  0  0  0  0  0  0  # atno 16524 bound_to 11156
  -19.9768   -0.8834   27.9460 LP  0  0  0  0  0  0  0  0  0  0  0  0  # atno 16525 bound_to 11201
  -16.9594   -1.1071   28.8051 LP  0  0  0  0  0  0  0  0  0  0  0  0  # atno 16528 bound_to 11204
  -15.9245   -0.8072   30.1612 LP  0  0  0  0  0  0  0  0  0  0  0  0  # atno 16529 bound_to 11204
  -18.2957    1.0491   31.7950 LP  0  0  0  0  0  0  0  0  0  0  0  0  # atno 16530 bound_to 11237
  -21.5136   -2.2413   25.3586 LP  0  0  0  0  0  0  0  0  0  0  0  0  # atno 16533 bound_to 11153
  -21.1779   -4.3484   24.5565 LP  0  0  0  0  0  0  0  0  0  0  0  0  # atno 16540 bound_to 11096
  -19.7491   -3.3808   24.7055 LP  0  0  0  0  0  0  0  0  0  0  0  0  # atno 16541 bound_to 11096
  -16.7231   -1.5152   15.2567 LP  0  0  0  0  0  0  0  0  0  0  0  0  # atno 16544 bound_to 10768
  -16.2798   -1.8557   13.6173 LP  0  0  0  0  0  0  0  0  0  0  0  0  # atno 16545 bound_to 10768
  -14.2711   -1.1475   33.0869 LP  0  0  0  0  0  0  0  0  0  0  0  0  # atno 16552 bound_to 11240
  -14.9772   -2.3189   32.0243 LP  0  0  0  0  0  0  0  0  0  0  0  0  # atno 16553 bound_to 11240
  -18.0364   -1.1917   32.5416 LP  0  0  0  0  0  0  0  0  0  0  0  0  # atno 16554 bound_to 11275
  -19.8008   -4.1953   32.2218 LP  0  0  0  0  0  0  0  0  0  0  0  0  # atno 16558 bound_to 11278
  -19.3350   -2.5301   32.3227 LP  0  0  0  0  0  0  0  0  0  0  0  0  # atno 16559 bound_to 11278
  -18.5290   -9.2478   25.5367 LP  0  0  0  0  0  0  0  0  0  0  0  0  # atno 16561 bound_to 9430
  -21.6719   -6.7423   32.2620 LP  0  0  0  0  0  0  0  0  0  0  0  0  # atno 16562 bound_to 11325
  -20.7269   -5.8055   31.1532 LP  0  0  0  0  0  0  0  0  0  0  0  0  # atno 16563 bound_to 11325
  -22.1355   -4.2418   31.8175 LP  0  0  0  0  0  0  0  0  0  0  0  0  # atno 16564 bound_to 11474
  -19.7072   -6.7340   34.1351 LP  0  0  0  0  0  0  0  0  0  0  0  0  # atno 16565 bound_to 11366
  -21.0378   -8.0976   27.3647 LP  0  0  0  0  0  0  0  0  0  0  0  0  # atno 16566 bound_to 9387
  -21.2375   -9.3950   26.2347 LP  0  0  0  0  0  0  0  0  0  0  0  0  # atno 16567 bound_to 9387
  -19.3986  -11.3563   32.3043 LP  0  0  0  0  0  0  0  0  0  0  0  0  # atno 16568 bound_to 11550
  -18.6615   -9.9087   32.1384 LP  0  0  0  0  0  0  0  0  0  0  0  0  # atno 16569 bound_to 11550
  -19.4147  -11.0179   25.6919 LP  0  0  0  0  0  0  0  0  0  0  0  0  # atno 16570 bound_to 9345
  -18.4542  -11.8012   24.4820 LP  0  0  0  0  0  0  0  0  0  0  0  0  # atno 16571 bound_to 9345
  -14.6705  -13.7137   25.3372 LP  0  0  0  0  0  0  0  0  0  0  0  0  # atno 16572 bound_to 9348
  -13.6697  -12.7461   24.4836 LP  0  0  0  0  0  0  0  0  0  0  0  0  # atno 16573 bound_to 9348
  -19.7115   -8.5973   23.4020 LP  0  0  0  0  0  0  0  0  0  0  0  0  # atno 16574 bound_to 9481
   -7.7315   -3.4697   16.2024 LP  0  0  0  0  0  0  0  0  0  0  0  0  # atno 16579 bound_to 5720
   -9.2080   -3.9621   15.4423 LP  0  0  0  0  0  0  0  0  0  0  0  0  # atno 16580 bound_to 5720
   -1.2745   -9.8916   20.7005 LP  0  0  0  0  0  0  0  0  0  0  0  0  # atno 16587 bound_to 15466
   -1.9067   -9.3032   22.0864 LP  0  0  0  0  0  0  0  0  0  0  0  0  # atno 16588 bound_to 15466
  -10.6185   -9.9416   16.7972 LP  0  0  0  0  0  0  0  0  0  0  0  0  # atno 16591 bound_to 7831
   -2.6172  -13.0166   26.6344 LP  0  0  0  0  0  0  0  0  0  0  0  0  # atno 16592 bound_to 1821
   -4.0594  -13.9398   26.3742 LP  0  0  0  0  0  0  0  0  0  0  0  0  # atno 16593 bound_to 1821
   -7.6538  -13.0807   18.8570 LP  0  0  0  0  0  0  0  0  0  0  0  0  # atno 16594 bound_to 7834
   -7.4852  -13.0263   17.1340 LP  0  0  0  0  0  0  0  0  0  0  0  0  # atno 16595 bound_to 7834
   -8.7802   -8.4960   14.9670 LP  0  0  0  0  0  0  0  0  0  0  0  0  # atno 16596 bound_to 5717
   -7.5628   -5.3922   15.4993 LP  0  0  0  0  0  0  0  0  0  0  0  0  # atno 16597 bound_to 5767
   -0.0460  -12.4969   18.7651 LP  0  0  0  0  0  0  0  0  0  0  0  0  # atno 16600 bound_to 1745
   -1.1497  -13.2570   19.8625 LP  0  0  0  0  0  0  0  0  0  0  0  0  # atno 16601 bound_to 1745
   -0.1353  -13.7670   24.3217 LP  0  0  0  0  0  0  0  0  0  0  0  0  # atno 16602 bound_to 1818
   -3.5104   -6.8842   14.4791 LP  0  0  0  0  0  0  0  0  0  0  0  0  # atno 16603 bound_to 5772
   -3.4931   -5.6463   13.4143 LP  0  0  0  0  0  0  0  0  0  0  0  0  # atno 16604 bound_to 5772
    0.5406   -8.3825   17.9730 LP  0  0  0  0  0  0  0  0  0  0  0  0  # atno 16605 bound_to 15403
    0.5935  -14.1085   20.3368 LP  0  0  0  0  0  0  0  0  0  0  0  0  # atno 16606 bound_to 1791
   -4.3624   -9.7196   12.6843 LP  0  0  0  0  0  0  0  0  0  0  0  0  # atno 16607 bound_to 5617
   -5.4250   -7.8082   13.8192 LP  0  0  0  0  0  0  0  0  0  0  0  0  # atno 16608 bound_to 5620
   -6.6465   -7.3578   12.6768 LP  0  0  0  0  0  0  0  0  0  0  0  0  # atno 16609 bound_to 5620
   -9.0263  -10.2512   15.7926 LP  0  0  0  0  0  0  0  0  0  0  0  0  # atno 16610 bound_to 7788
  -10.3065  -10.4540   14.6437 LP  0  0  0  0  0  0  0  0  0  0  0  0  # atno 16611 bound_to 7788
   -9.6383  -12.3405   16.9639 LP  0  0  0  0  0  0  0  0  0  0  0  0  # atno 16612 bound_to 7874
    0.1442  -16.4749   24.2443 LP  0  0  0  0  0  0  0  0  0  0  0  0  # atno 16613 bound_to 1794
    0.8135  -16.0890   22.6941 LP  0  0  0  0  0  0  0  0  0  0  0  0  # atno 16614 bound_to 1794
    0.2953  -14.6084   28.8375 LP  0  0  0  0  0  0  0  0  0  0  0  0  # atno 16615 bound_to 1824
   -1.2078  -14.9694   28.3110 LP  0  0  0  0  0  0  0  0  0  0  0  0  # atno 16616 bound_to 1824
   -1.8687  -15.9462   27.4911 LP  0  0  0  0  0  0  0  0  0  0  0  0  # atno 16617 bound_to 1854
  -15.7210  -15.5281   27.7609 LP  0  0  0  0  0  0  0  0  0  0  0  0  # atno 16622 bound_to 9318
  -15.4090  -13.8420   27.5167 LP  0  0  0  0  0  0  0  0  0  0  0  0  # atno 16623 bound_to 9318
  -17.0116  -14.2863   26.3507 LP  0  0  0  0  0  0  0  0  0  0  0  0  # atno 16624 bound_to 9342
  -21.1350   -6.8128   22.9423 LP  0  0  0  0  0  0  0  0  0  0  0  0  # atno 16627 bound_to 9433
  -21.8129   -8.3874   22.6950 LP  0  0  0  0  0  0  0  0  0  0  0  0  # atno 16628 bound_to 9433
  -16.2118   -8.1061   17.7623 LP  0  0  0  0  0  0  0  0  0  0  0  0  # atno 16629 bound_to 9492
  -16.8492   -6.8471   18.5841 LP  0  0  0  0  0  0  0  0  0  0  0  0  # atno 16630 bound_to 9492
  -17.2093  -13.2596   20.2417 LP  0  0  0  0  0  0  0  0  0  0  0  0  # atno 16631 bound_to 7667
  -17.4198  -11.9368   19.1436 LP  0  0  0  0  0  0  0  0  0  0  0  0  # atno 16632 bound_to 7667
  -14.4625  -13.6219   18.2570 LP  0  0  0  0  0  0  0  0  0  0  0  0  # atno 16634 bound_to 7723
  -12.5826  -12.0323   15.7903 LP  0  0  0  0  0  0  0  0  0  0  0  0  # atno 16635 bound_to 7726
  -13.0510  -13.0843   17.0840 LP  0  0  0  0  0  0  0  0  0  0  0  0  # atno 16636 bound_to 7726
  -20.0305   -5.8986   17.2551 LP  0  0  0  0  0  0  0  0  0  0  0  0  # atno 16637 bound_to 10539
  -20.7679   -5.8324   15.6892 LP  0  0  0  0  0  0  0  0  0  0  0  0  # atno 16638 bound_to 10539
   -5.1323  -15.3148   32.6851 LP  0  0  0  0  0  0  0  0  0  0  0  0  # atno 16639 bound_to 1884
   -6.6439  -15.8612   32.9736 LP  0  0  0  0  0  0  0  0  0  0  0  0  # atno 16640 bound_to 1884
  -16.8497  -16.8252   27.8022 LP  0  0  0  0  0  0  0  0  0  0  0  0  # atno 16641 bound_to 9315
   -3.8866  -17.2930   29.4857 LP  0  0  0  0  0  0  0  0  0  0  0  0  # atno 16642 bound_to 1879
   -1.8177  -16.0473   30.1184 LP  0  0  0  0  0  0  0  0  0  0  0  0  # atno 16643 bound_to 1857
   -1.8087  -17.6572   29.4793 LP  0  0  0  0  0  0  0  0  0  0  0  0  # atno 16644 bound_to 1857
  -18.4800  -16.9395   23.0767 LP  0  0  0  0  0  0  0  0  0  0  0  0  # atno 16645 bound_to 7565
  -17.2646  -18.1335   23.3884 LP  0  0  0  0  0  0  0  0  0  0  0  0  # atno 16646 bound_to 7565
  -20.5655  -17.7753   27.3779 LP  0  0  0  0  0  0  0  0  0  0  0  0  # atno 16647 bound_to 9289
  -19.7776  -17.1554   25.9654 LP  0  0  0  0  0  0  0  0  0  0  0  0  # atno 16648 bound_to 9289
  -18.4635  -18.2004   31.7232 LP  0  0  0  0  0  0  0  0  0  0  0  0  # atno 16649 bound_to 9236
  -18.3824  -19.9150   31.4918 LP  0  0  0  0  0  0  0  0  0  0  0  0  # atno 16650 bound_to 9236
  -20.0477  -19.7623   29.2209 LP  0  0  0  0  0  0  0  0  0  0  0  0  # atno 16653 bound_to 9286
  -21.9141  -21.0171   31.9831 LP  0  0  0  0  0  0  0  0  0  0  0  0  # atno 16654 bound_to 9233
  -11.1126  -22.5017   34.1230 LP  0  0  0  0  0  0  0  0  0  0  0  0  # atno 16655 bound_to 3365
  -11.7618  -24.0610   33.7395 LP  0  0  0  0  0  0  0  0  0  0  0  0  # atno 16656 bound_to 3365
   -7.4895  -23.8322   36.8952 LP  0  0  0  0  0  0  0  0  0  0  0  0  # atno 16657 bound_to 3362
   -4.8280  -19.1931   29.8673 LP  0  0  0  0  0  0  0  0  0  0  0  0  # atno 16658 bound_to 1922

> <Gold.Score>
     Fitness  S(hb_ext) S(vdw_ext)  S(hb_int)    S(int)      intcor
     29.33       1.55      20.99       0.00      -1.08      -0.76

> <Gold.Goldscore.Fitness>
29.3251

> <Gold.Goldscore.Internal.Vdw>
-1.3217

> <Gold.Goldscore.Internal.Torsion>
-0.5152

> <Gold.Goldscore.External.Vdw>
20.9860

> <Gold.Goldscore.Internal.HBond>
0.0000

> <Gold.Goldscore.External.HBond>
1.5466

> <Gold.Goldscore.Internal.Correction>
-0.7595

> <Gold.Goldscore.Hbonds>
donor molecule, donor type, donor heavy atom, donor atom, acceptor molecule, acceptor atom, score
      P1  H  6140  6164       L1     9  0.03
      L1  H     8    22       P1 10886  0.75

> <Gold.Goldscore.Internal.Vdw.Weighted>
-1.3217

> <Gold.Goldscore.Internal.Torsion.Weighted>
-0.5152

> <Gold.Goldscore.External.Vdw.Weighted>
28.8558

> <Gold.Goldscore.Internal.HBond.Weighted>
0.0000

> <Gold.Goldscore.External.HBond.Weighted>
1.5466

> <Gold.Goldscore.Internal.Correction.Weighted>
-0.7595

> <Gold.Rescore>
     Score     S(PLP)   S(hbond)     S(cho)   S(metal)  DE(clash)   DE(tors)     intcor
     26.60     -26.72       0.52       0.00       0.00       0.02       0.83       ----

> <Gold.PLP.Fitness>
26.6031

> <Gold.PLP.PLP>
-26.7210

> <Gold.PLP.part.hbond>
-0.4924

> <Gold.PLP.part.metal>
0.0000

> <Gold.PLP.part.buried>
-1.6762

> <Gold.PLP.part.nonpolar>
-25.8744

> <Gold.PLP.part.repulsive>
0.5204

> <Gold.PLP.ligand.clash>
0.0169

> <Gold.PLP.ligand.torsion>
0.8305

> <Gold.PLP.Chemscore.Hbond>
0.5200

> <Gold.PLP.Chemscore.CHOScore>
0.0000

> <Gold.PLP.Chemscore.Metal>
0.0000

> <Gold.Chemscore.Hbonds>
donor molecule, donor type, donor heavy atom, donor atom, acceptor molecule, acceptor atom, score
      L1  H     8    22       P1 10886  1.00

> <Gold.PLP.Chemscore.Internal.Correction>
   9.000000E+99

