@<TRIPOS>MOLECULE
B:THR5
   284   286    19     0     1
SMALL
NO_CHARGES
****
Generated from the CSD

@<TRIPOS>ATOM
     1 N       10.3110  13.2640  18.4980   N.3       1 THR5   0.0000
     2 CA      11.4810  13.5040  17.6600   C.3       1 THR5   0.0000
     3 C       11.5210  12.5150  16.5000   C.2       1 THR5   0.0000
     4 O       10.9740  11.4140  16.5750   O.2       1 THR5   0.0000
     5 CB      12.7940  13.3690  18.4440   C.3       1 THR5   0.0000
     6 CG2     12.7200  14.1590  19.7430   C.3       1 THR5   0.0000
     7 OG1     13.0550  11.9850  18.7230   O.3       1 THR5   0.0000
     8 N       12.1720  12.9100  15.4160   N.am      2 THR6   0.0000
     9 CA      12.2530  12.0290  14.2670   C.3       2 THR6   0.0000
    10 C       13.0150  10.7560  14.6320   C.2       2 THR6   0.0000
    11 O       12.6570   9.6590  14.2080   O.2       2 THR6   0.0000
    12 CB      12.9170  12.7350  13.0790   C.3       2 THR6   0.0000
    13 CG2     12.7850  11.8790  11.8280   C.3       2 THR6   0.0000
    14 OG1     12.2560  13.9890  12.8590   O.3       2 THR6   0.0000
    15 N       14.0650  10.9090  15.4290   N.am      3 TYR7   0.0000
    16 CA      14.8310   9.7540  15.8720   C.3       3 TYR7   0.0000
    17 C       13.9260   8.7870  16.6450   C.2       3 TYR7   0.0000
    18 O       13.9020   7.5980  16.3460   O.2       3 TYR7   0.0000
    19 CB      16.0620  10.1820  16.6860   C.3       3 TYR7   0.0000
    20 CG      16.6910   9.0680  17.4950   C.ar      3 TYR7   0.0000
    21 CD1     16.4080   8.9310  18.8460   C.ar      3 TYR7   0.0000
    22 CD2     17.5630   8.1560  16.9110   C.ar      3 TYR7   0.0000
    23 CE1     16.9730   7.9210  19.5990   C.ar      3 TYR7   0.0000
    24 CE2     18.1330   7.1320  17.6570   C.ar      3 TYR7   0.0000
    25 CZ      17.8320   7.0220  19.0010   C.ar      3 TYR7   0.0000
    26 OH      18.3820   6.0150  19.7730   O.3       3 TYR7   0.0000
    27 N       13.1530   9.2900  17.6100   N.am      4 ALA8   0.0000
    28 CA      12.2460   8.4020  18.3490   C.3       4 ALA8   0.0000
    29 C       11.2830   7.7060  17.3810   C.2       4 ALA8   0.0000
    30 O       11.0040   6.5150  17.5130   O.2       4 ALA8   0.0000
    31 CB      11.4670   9.1650  19.4440   C.3       4 ALA8   0.0000
    32 N       10.7790   8.4480  16.4020   N.am      5 ASP9   0.0000
    33 CA       9.8840   7.8570  15.4230   C.3       5 ASP9   0.0000
    34 C       10.5560   6.7530  14.6120   C.2       5 ASP9   0.0000
    35 O        9.9540   5.7100  14.3620   O.2       5 ASP9   0.0000
    36 CB       9.3020   8.9280  14.5070   C.3       5 ASP9   0.0000
    37 CG       8.3100   9.8080  15.2300   C.ar      5 ASP9   0.0000
    38 OD1      7.7320   9.3420  16.2410   O.co2     5 ASP9   0.0000
    39 OD2      8.1230  10.9600  14.8040   O.co2     5 ASP9   0.0000
    40 N       11.8060   6.9710  14.2220   N.am      6 PHE10   0.0000
    41 CA      12.5250   5.9370  13.4850   C.3       6 PHE10   0.0000
    42 C       12.7130   4.6960  14.3550   C.2       6 PHE10   0.0000
    43 O       12.4230   3.5710  13.9360   O.2       6 PHE10   0.0000
    44 CB      13.8850   6.4550  13.0070   C.3       6 PHE10   0.0000
    45 CG      14.6960   5.4250  12.2820   C.ar      6 PHE10   0.0000
    46 CD1     14.2550   4.9110  11.0740   C.ar      6 PHE10   0.0000
    47 CD2     15.9040   4.9830  12.7990   C.ar      6 PHE10   0.0000
    48 CE1     15.0010   3.9580  10.3930   C.ar      6 PHE10   0.0000
    49 CE2     16.6610   4.0320  12.1230   C.ar      6 PHE10   0.0000
    50 CZ      16.2040   3.5180  10.9180   C.ar      6 PHE10   0.0000
    51 N       13.1790   4.9090  15.5760   N.am      7 ILE11   0.0000
    52 CA      13.5050   3.8090  16.4700   C.3       7 ILE11   0.0000
    53 C       12.2820   2.9530  16.7850   C.2       7 ILE11   0.0000
    54 O       12.4010   1.7510  16.9680   O.2       7 ILE11   0.0000
    55 CB      14.1780   4.3230  17.7640   C.3       7 ILE11   0.0000
    56 CG1     15.5650   4.8810  17.4440   C.3       7 ILE11   0.0000
    57 CG2     14.3330   3.2120  18.7830   C.3       7 ILE11   0.0000
    58 CD1     16.5000   3.8660  16.7690   C.3       7 ILE11   0.0000
    59 N       11.1070   3.5780  16.8400   N.am      8 ALA12   0.0000
    60 CA       9.8650   2.8500  17.1050   C.3       8 ALA12   0.0000
    61 C        9.2770   2.2400  15.8280   C.2       8 ALA12   0.0000
    62 O        8.2890   1.5200  15.8860   O.2       8 ALA12   0.0000
    63 CB       8.8520   3.7560  17.7630   C.3       8 ALA12   0.0000
    64 N        9.8880   2.5250  14.6800   N.am      9 SER13   0.0000
    65 CA       9.3660   2.0170  13.4070   C.3       9 SER13   0.0000
    66 C        9.7840   0.5700  13.1590   C.2       9 SER13   0.0000
    67 O       10.6510   0.0450  13.8470   O.2       9 SER13   0.0000
    68 CB       9.8640   2.8750  12.2450   C.3       9 SER13   0.0000
    69 OG      11.1660   2.4610  11.8390   O.3       9 SER13   0.0000
    70 N        9.1880  -0.0560  12.1470   N.am     10 GLY14   0.0000
    71 CA       9.4900  -1.4430  11.8160   C.3      10 GLY14   0.0000
    72 C       10.6710  -1.6240  10.8690   C.2      10 GLY14   0.0000
    73 O       10.9770  -2.7380  10.4340   O.2      10 GLY14   0.0000
    74 N       11.3530  -0.5360  10.5450   N.am     11 ARG15   0.0000
    75 CA      12.4520  -0.6250   9.5900   C.3      11 ARG15   0.0000
    76 C       13.8070  -0.1270  10.1060   C.2      11 ARG15   0.0000
    77 O       14.5140   0.6110   9.4140   O.2      11 ARG15   0.0000
    78 CB      12.0600   0.0690   8.2940   C.3      11 ARG15   0.0000
    79 CG      10.8720  -0.6300   7.6370   C.3      11 ARG15   0.0000
    80 CD      10.4650   0.0390   6.3670   C.3      11 ARG15   0.0000
    81 NE      11.4500  -0.1310   5.3070   N.2      11 ARG15   0.0000
    82 CZ      11.5590  -1.2170   4.5500   C.ar     11 ARG15   0.0000
    83 NH1     12.4740  -1.2630   3.5900   N.2      11 ARG15   0.0000
    84 NH2     10.7610  -2.2610   4.7500   N.2      11 ARG15   0.0000
    85 N       14.1800  -0.5660  11.3060   N.am     12 THR16   0.0000
    86 CA      15.4990  -0.2410  11.8550   C.3      12 THR16   0.0000
    87 C       16.4560  -1.4260  11.7410   C.2      12 THR16   0.0000
    88 O       17.6530  -1.2930  12.0100   O.2      12 THR16   0.0000
    89 CB      15.4030   0.1770  13.3300   C.3      12 THR16   0.0000
    90 CG2     14.3950   1.3170  13.4840   C.3      12 THR16   0.0000
    91 OG1     14.9770  -0.9390  14.1230   O.3      12 THR16   0.0000
    92 N       15.9230  -2.5810  11.3500   N.am     13 GLY17   0.0000
    93 CA      16.7450  -3.7540  11.0730   C.3      13 GLY17   0.0000
    94 C       17.2670  -3.7370   9.6460   C.2      13 GLY17   0.0000
    95 O       16.9940  -2.8020   8.9020   O.2      13 GLY17   0.0000
    96 N       18.0230  -4.7620   9.2570   N.am     14 ARG18   0.0000
    97 CA      18.5320  -4.8560   7.8910   C.3      14 ARG18   0.0000
    98 C       17.3900  -4.8750   6.8890   C.2      14 ARG18   0.0000
    99 O       16.3920  -5.5780   7.0690   O.2      14 ARG18   0.0000
   100 CB      19.3970  -6.1070   7.7260   C.3      14 ARG18   0.0000
   101 CG      20.7140  -6.0430   8.4860   C.3      14 ARG18   0.0000
   102 CD      21.6180  -7.2690   8.1950   C.3      14 ARG18   0.0000
   103 NE      22.9040  -7.0500   8.8490   N.2      14 ARG18   0.0000
   104 CZ      23.1250  -7.2250  10.1470   C.ar     14 ARG18   0.0000
   105 NH1     22.1660  -7.6910  10.9410   N.2      14 ARG18   0.0000
   106 NH2     24.3220  -6.9610  10.6480   N.2      14 ARG18   0.0000
   107 N       17.5290  -4.0860   5.8350   N.am     15 ARG19   0.0000
   108 CA      16.4330  -3.8880   4.8910   C.3      15 ARG19   0.0000
   109 C       16.6400  -4.7490   3.6600   C.2      15 ARG19   0.0000
   110 O       17.7120  -4.7270   3.0640   O.2      15 ARG19   0.0000
   111 CB      16.3440  -2.4150   4.5090   C.3      15 ARG19   0.0000
   112 CG      16.0290  -1.5260   5.7140   C.3      15 ARG19   0.0000
   113 CD      16.4930  -0.1000   5.5350   C.3      15 ARG19   0.0000
   114 NE      17.9500   0.0480   5.5770   N.2      15 ARG19   0.0000
   115 CZ      18.5690   1.2110   5.7880   C.ar     15 ARG19   0.0000
   116 NH1     17.8550   2.3080   5.9930   N.2      15 ARG19   0.0000
   117 NH2     19.8980   1.2830   5.8060   N.2      15 ARG19   0.0000
   118 N       15.6140  -5.5120   3.2990   N.am     16 ASN20   0.0000
   119 CA      15.6650  -6.3640   2.1150   C.3      16 ASN20   0.0000
   120 C       15.5890  -5.5580   0.8290   C.2      16 ASN20   0.0000
   121 O       14.9370  -4.5090   0.7720   O.2      16 ASN20   0.0000
   122 CB      14.5250  -7.3880   2.1370   C.3      16 ASN20   0.0000
   123 CG      14.5910  -8.3180   3.3460   C.2      16 ASN20   0.0000
   124 ND2     13.4300  -8.6450   3.9100   N.am     16 ASN20   0.0000
   125 OD1     15.6720  -8.7290   3.7700   O.2      16 ASN20   0.0000
   126 N       16.2740  -6.0480  -0.1990   N.am     17 ALA21   0.0000
   127 CA      16.1190  -5.5210  -1.5380   C.3      17 ALA21   0.0000
   128 C       14.7450  -5.9280  -2.0480   C.2      17 ALA21   0.0000
   129 O       14.2110  -6.9660  -1.6450   O.2      17 ALA21   0.0000
   130 CB      17.2070  -6.0800  -2.4620   C.3      17 ALA21   0.0000
   131 N       14.1700  -5.1110  -2.9240   N.am     18 ILE22   0.0000
   132 CA      12.9870  -5.5310  -3.6500   C.3      18 ILE22   0.0000
   133 C       13.4630  -6.1490  -4.9540   C.2      18 ILE22   0.0000
   134 O       14.4090  -5.6550  -5.5850   O.2      18 ILE22   0.0000
   135 CB      12.0310  -4.3680  -3.9530   C.3      18 ILE22   0.0000
   136 CG1     12.6920  -3.3580  -4.8880   C.3      18 ILE22   0.0000
   137 CG2     11.5700  -3.7070  -2.6680   C.3      18 ILE22   0.0000
   138 CD1     11.8520  -2.1400  -5.1500   C.3      18 ILE22   0.0000
   139 N       12.8250  -7.2420  -5.3430   N.am     19 HIS23   0.0000
   140 CA      13.1690  -7.9110  -6.5920   C.3      19 HIS23   0.0000
   141 C       12.0790  -7.7000  -7.6450   C.2      19 HIS23   0.0000
   142 O       11.6950  -8.6300  -8.3530   O.2      19 HIS23   0.0000
   143 CB      13.4230  -9.4030  -6.3460   C.3      19 HIS23   0.0000
   144 CG      14.5430  -9.6750  -5.3860   C.2      19 HIS23   0.0000
   145 CD2     14.5310 -10.0560  -4.0860   C.2      19 HIS23   0.0000
   146 ND1     15.8710  -9.5570  -5.7380   N.pl3    19 HIS23   0.0000
   147 CE1     16.6300  -9.8530  -4.6970   C.2      19 HIS23   0.0000
   148 NE2     15.8410 -10.1560  -3.6810   N.2      19 HIS23   0.0000
   149 H1      18.8114   6.4219  17.1864   H         3 TYR7   0.0000
   150 H2      10.8747   9.9549  18.9845   H         4 ALA8   0.0000
   151 H3      10.8074   8.4748  19.9680   H         4 ALA8   0.0000
   152 H4      12.1699   9.6029  20.1512   H         4 ALA8   0.0000
   153 H5      12.8473   7.6354  18.8355   H         4 ALA8   0.0000
   154 H6      17.1306  -7.1657  -2.4973   H        17 ALA21   0.0000
   155 H7      17.0761  -5.6741  -3.4640   H        17 ALA21   0.0000
   156 H8      18.1872  -5.7973  -2.0811   H        17 ALA21   0.0000
   157 H9      14.5607  -4.1883  -3.0858   H        18 ILE22   0.0000
   158 H10     12.4594  -6.2854  -3.0683   H        18 ILE22   0.0000
   159 H11     11.0720   4.5820  16.6948   H         8 ALA12   0.0000
   160 H12     17.8029   8.2458  15.8525   H         3 TYR7   0.0000
   161 H13     14.4505   6.7904  13.8751   H         6 PHE10   0.0000
   162 H14     13.7170   7.2962  12.3361   H         6 PHE10   0.0000
   163 H15     10.3496  12.3208  18.8709   H         1 THR5   0.0000
   164 H16     10.3008  13.9303  19.2636   H         1 THR5   0.0000
   165 H17     11.0202   9.4318  16.3377   H         5 ASP9   0.0000
   166 H18     10.0299  -0.6166   8.3274   H        11 ARG15   0.0000
   167 H19     11.1466  -1.6611   7.4193   H        11 ARG15   0.0000
   168 H20     10.3377   1.1035   6.5581   H        11 ARG15   0.0000
   169 H21      9.5186  -0.3861   6.0359   H        11 ARG15   0.0000
   170 H22      8.7989   8.4421  13.6723   H         5 ASP9   0.0000
   171 H23     10.1139   9.5483  14.1302   H         5 ASP9   0.0000
   172 H24     17.6088   3.6921  12.5379   H         6 PHE10   0.0000
   173 H25     13.1298  11.4836  17.8692   H         1 THR5   0.0000
   174 H26     11.9020  13.7787  20.3531   H         1 THR5   0.0000
   175 H27     13.6578  14.0529  20.2863   H         1 THR5   0.0000
   176 H28     12.5473  15.2106  19.5190   H         1 THR5   0.0000
   177 H29     15.7265   9.6342  19.3223   H         3 TYR7   0.0000
   178 H30     14.9496   2.4183  18.3637   H         7 ILE11   0.0000
   179 H31     14.8088   3.6059  19.6799   H         7 ILE11   0.0000
   180 H32     13.3520   2.8135  19.0376   H         7 ILE11   0.0000
   181 H33     14.6400   3.5572   9.4470   H         6 PHE10   0.0000
   182 H34     13.6075  13.7648  17.8378   H         1 THR5   0.0000
   183 H35     11.1360   1.5119  11.5487   H         9 SER13   0.0000
   184 H36      9.0555   7.4058  15.9670   H         5 ASP9   0.0000
   185 H37     12.5763  -1.6808   9.3540   H        11 ARG15   0.0000
   186 H38     13.1917  10.2797  17.8317   H         4 ALA8   0.0000
   187 H39     17.6554   5.4546  20.1526   H         3 TYR7   0.0000
   188 H40     16.0595   3.5356  15.8295   H         7 ILE11   0.0000
   189 H41     17.4635   4.3343  16.5733   H         7 ILE11   0.0000
   190 H42     16.6398   3.0086  17.4257   H         7 ILE11   0.0000
   191 H43     12.9070   0.0506   7.6098   H        11 ARG15   0.0000
   192 H44     11.7905   1.1017   8.5104   H        11 ARG15   0.0000
   193 H45      8.6091  -1.8808  11.3488   H        10 GLY14   0.0000
   194 H46      9.7115  -1.9730  12.7412   H        10 GLY14   0.0000
   195 H47     19.1498  -3.9814   7.6926   H        14 ARG18   0.0000
   196 H48     19.6167  -6.2362   6.6672   H        14 ARG18   0.0000
   197 H49     18.8327  -6.9656   8.0871   H        14 ARG18   0.0000
   198 H50     20.5016  -6.0093   9.5536   H        14 ARG18   0.0000
   199 H51     21.2446  -5.1384   8.1927   H        14 ARG18   0.0000
   200 H52     21.7633  -7.3737   7.1208   H        14 ARG18   0.0000
   201 H53     21.1531  -8.1719   8.5881   H        14 ARG18   0.0000
   202 H54     22.3457  -7.8209  11.9315   H        14 ARG18   0.0000
   203 H55     24.4977  -7.0925  11.6390   H        14 ARG18   0.0000
   204 H56     18.4125  -3.6107   5.6806   H        15 ARG19   0.0000
   205 H57     15.5006  -4.1820   5.3708   H        15 ARG19   0.0000
   206 H58     15.5571  -2.2917   3.7664   H        15 ARG19   0.0000
   207 H59     17.2969  -2.1045   4.0831   H        15 ARG19   0.0000
   208 H60     16.5217  -1.9434   6.5909   H        15 ARG19   0.0000
   209 H61     14.9513  -1.5229   5.8702   H        15 ARG19   0.0000
   210 H62     16.0615   0.5057   6.3305   H        15 ARG19   0.0000
   211 H63     16.1372   0.2602   4.5709   H        15 ARG19   0.0000
   212 H64     18.3219   3.1947   6.1539   H        15 ARG19   0.0000
   213 H65     20.3558   2.1743   5.9677   H        15 ARG19   0.0000
   214 H66     14.7702  -5.5021   3.8630   H        16 ASN20   0.0000
   215 H67     16.6102  -6.9048   2.1238   H        16 ASN20   0.0000
   216 H68     14.5800  -7.9899   1.2311   H        16 ASN20   0.0000
   217 H69     13.5767  -6.8531   2.1604   H        16 ASN20   0.0000
   218 H70     13.4133  -9.2603   4.7170   H        16 ASN20   0.0000
   219 H71     12.5617  -8.2789   3.5329   H        16 ASN20   0.0000
   220 H72     16.9231  -6.8121  -0.0409   H        17 ALA21   0.0000
   221 H73     16.1889  -4.4346  -1.5108   H        17 ALA21   0.0000
   222 H74     11.1552  -4.7731  -4.4578   H        18 ILE22   0.0000
   223 H75     12.8919  -3.8492  -5.8391   H        18 ILE22   0.0000
   224 H76     13.6316  -3.0381  -4.4401   H        18 ILE22   0.0000
   225 H77     12.4336  -3.3220  -2.1277   H        18 ILE22   0.0000
   226 H78     10.8942  -2.8864  -2.9041   H        18 ILE22   0.0000
   227 H79     11.0512  -4.4380  -2.0496   H        18 ILE22   0.0000
   228 H80     11.6507  -1.6288  -4.2098   H        18 ILE22   0.0000
   229 H81     12.3855  -1.4686  -5.8213   H        18 ILE22   0.0000
   230 H82     10.9110  -2.4398  -5.6089   H        18 ILE22   0.0000
   231 H83     12.0839  -7.6206  -4.7619   H        19 HIS23   0.0000
   232 H84     14.0908  -7.4697  -6.9680   H        19 HIS23   0.0000
   233 H85     11.6369  -6.7126  -7.7695   H        19 HIS23   0.0000
   234 H86     14.3359  11.8391  15.7319   H         3 TYR7   0.0000
   235 H87      9.9014   3.9169  12.5595   H         9 SER13   0.0000
   236 H88      9.1780   2.7737  11.4053   H         9 SER13   0.0000
   237 H89     16.7418   7.8344  20.6596   H         3 TYR7   0.0000
   238 H90     12.5597  -2.0915   3.0099   H        11 ARG15   0.0000
   239 H91     10.8506  -3.0872   4.1673   H        11 ARG15   0.0000
   240 H92     13.5398  -1.1356  11.8500   H        12 THR16   0.0000
   241 H93     15.9126   0.5914  11.2875   H        12 THR16   0.0000
   242 H94     16.3806   0.5114  13.6742   H        12 THR16   0.0000
   243 H95     13.4163   0.9851  13.1405   H        12 THR16   0.0000
   244 H96     14.3327   1.6074  14.5317   H        12 THR16   0.0000
   245 H97     14.7183   2.1702  12.8894   H        12 THR16   0.0000
   246 H98     15.6333  -1.6787  14.0330   H        12 THR16   0.0000
   247 H99     14.9160  -2.6477  11.2414   H        13 GLY17   0.0000
   248 H100    16.1450  -4.6507  11.2207   H        13 GLY17   0.0000
   249 H101    17.5900  -3.7654  11.7599   H        13 GLY17   0.0000
   250 H102    18.2502  -5.4930   9.9235   H        14 ARG18   0.0000
   251 H103    13.5661   5.1155  18.1923   H         7 ILE11   0.0000
   252 H104    15.7599  10.9726  17.3712   H         3 TYR7   0.0000
   253 H105    16.8108  10.5668  15.9953   H         3 TYR7   0.0000
   254 H106    12.3356  14.5524  13.6728   H         2 THR6   0.0000
   255 H107    11.9346   5.6609  12.6126   H         6 PHE10   0.0000
   256 H108    10.7243   3.1002  14.6858   H         9 SER13   0.0000
   257 H109    14.2254   3.1735  15.9571   H         7 ILE11   0.0000
   258 H110     8.2784   2.0650  13.4334   H         9 SER13   0.0000
   259 H111    11.7307  11.7191  11.6072   H         2 THR6   0.0000
   260 H112    13.2587  12.3867  10.9891   H         2 THR6   0.0000
   261 H113    13.2712  10.9185  11.9924   H         2 THR6   0.0000
   262 H114    11.1115   0.3581  10.9604   H        11 ARG15   0.0000
   263 H115    16.0269   5.2076  18.3745   H         7 ILE11   0.0000
   264 H116    15.4466   5.7346  16.7783   H         7 ILE11   0.0000
   265 H117     8.5041   0.4464  11.5902   H        10 GLY14   0.0000
   266 H118    13.6655  -9.8719  -7.2985   H        19 HIS23   0.0000
   267 H119    12.5120  -9.8451  -5.9453   H        19 HIS23   0.0000
   268 H120    13.6492 -10.2472  -3.4762   H        19 HIS23   0.0000
   269 H121    16.2127  -9.2851  -6.6542   H        19 HIS23   0.0000
   270 H122    17.7188  -9.8480  -4.6796   H        19 HIS23   0.0000
   271 H123    11.2408  11.7506  13.9773   H         2 THR6   0.0000
   272 H124    12.6118  13.8244  15.3898   H         2 THR6   0.0000
   273 H125    13.3119   5.8631  15.8958   H         7 ILE11   0.0000
   274 H126    16.7904   2.7701  10.3864   H         6 PHE10   0.0000
   275 H127    13.9700  12.9080  13.2963   H         2 THR6   0.0000
   276 H128     8.6361   4.5969  17.1057   H         8 ALA12   0.0000
   277 H129     7.9357   3.1988  17.9526   H         8 ALA12   0.0000
   278 H130     9.2536   4.1257  18.7053   H         8 ALA12   0.0000
   279 H131    12.2598   7.8534  14.4356   H         6 PHE10   0.0000
   280 H132    15.1872   9.2340  14.9839   H         3 TYR7   0.0000
   281 H133    16.2642   5.3849  13.7449   H         6 PHE10   0.0000
   282 H134    11.4188  14.5132  17.2555   H         1 THR5   0.0000
   283 H135    13.3124   5.2581  10.6533   H         6 PHE10   0.0000
   284 H136    10.0901   2.0378  17.7947   H         8 ALA12   0.0000
@<TRIPOS>BOND
     1     1     2    1
     2     2     3    1
     3     3     4    2
     4     2     5    1
     5     5     6    1
     6     5     7    1
     7     3     8   am
     8     8     9    1
     9     9    10    1
    10    10    11    2
    11     9    12    1
    12    12    13    1
    13    12    14    1
    14    10    15   am
    15    15    16    1
    16    16    17    1
    17    17    18    2
    18    16    19    1
    19    19    20    1
    20    20    21   ar
    21    20    22   ar
    22    21    23   ar
    23    22    24   ar
    24    23    25   ar
    25    24    25   ar
    26    25    26    1
    27    17    27   am
    28    27    28    1
    29    28    29    1
    30    29    30    2
    31    28    31    1
    32    29    32   am
    33    32    33    1
    34    33    34    1
    35    34    35    2
    36    33    36    1
    37    36    37    1
    38    37    38   ar
    39    37    39   ar
    40    34    40   am
    41    40    41    1
    42    41    42    1
    43    42    43    2
    44    41    44    1
    45    44    45    1
    46    45    46   ar
    47    45    47   ar
    48    46    48   ar
    49    47    49   ar
    50    48    50   ar
    51    49    50   ar
    52    42    51   am
    53    51    52    1
    54    52    53    1
    55    53    54    2
    56    52    55    1
    57    55    56    1
    58    55    57    1
    59    56    58    1
    60    53    59   am
    61    59    60    1
    62    60    61    1
    63    61    62    2
    64    60    63    1
    65    61    64   am
    66    64    65    1
    67    65    66    1
    68    66    67    2
    69    65    68    1
    70    68    69    1
    71    66    70   am
    72    70    71    1
    73    71    72    1
    74    72    73    2
    75    72    74   am
    76    74    75    1
    77    75    76    1
    78    76    77    2
    79    75    78    1
    80    78    79    1
    81    79    80    1
    82    80    81    1
    83    81    82   ar
    84    82    83   ar
    85    82    84   ar
    86    76    85   am
    87    85    86    1
    88    86    87    1
    89    87    88    2
    90    86    89    1
    91    89    90    1
    92    89    91    1
    93    87    92   am
    94    92    93    1
    95    93    94    1
    96    94    95    2
    97    94    96   am
    98    96    97    1
    99    97    98    1
   100    98    99    2
   101    97   100    1
   102   100   101    1
   103   101   102    1
   104   102   103    1
   105   103   104   ar
   106   104   105   ar
   107   104   106   ar
   108    98   107   am
   109   107   108    1
   110   108   109    1
   111   109   110    2
   112   108   111    1
   113   111   112    1
   114   112   113    1
   115   113   114    1
   116   114   115   ar
   117   115   116   ar
   118   115   117   ar
   119   109   118   am
   120   118   119    1
   121   119   120    1
   122   120   121    2
   123   119   122    1
   124   122   123    1
   125   123   124   am
   126   123   125    2
   127   120   126   am
   128   126   127    1
   129   127   128    1
   130   128   129    2
   131   127   130    1
   132   128   131   am
   133   131   132    1
   134   132   133    1
   135   133   134    2
   136   132   135    1
   137   135   136    1
   138   135   137    1
   139   136   138    1
   140   133   139   am
   141   139   140    1
   142   140   141    1
   143   141   142    2
   144   140   143    1
   145   143   144    1
   146   144   145    2
   147   144   146    1
   148   146   147    1
   149   145   148    1
   150   147   148    2
   151    24   149    1
   152    31   150    1
   153    31   151    1
   154    31   152    1
   155    28   153    1
   156   130   154    1
   157   130   155    1
   158   130   156    1
   159   131   157    1
   160   132   158    1
   161    59   159    1
   162    22   160    1
   163    44   161    1
   164    44   162    1
   165     1   163    1
   166     1   164    1
   167    32   165    1
   168    79   166    1
   169    79   167    1
   170    80   168    1
   171    80   169    1
   172    36   170    1
   173    36   171    1
   174    49   172    1
   175     7   173    1
   176     6   174    1
   177     6   175    1
   178     6   176    1
   179    21   177    1
   180    57   178    1
   181    57   179    1
   182    57   180    1
   183    48   181    1
   184     5   182    1
   185    69   183    1
   186    33   184    1
   187    75   185    1
   188    27   186    1
   189    26   187    1
   190    58   188    1
   191    58   189    1
   192    58   190    1
   193    78   191    1
   194    78   192    1
   195    71   193    1
   196    71   194    1
   197    97   195    1
   198   100   196    1
   199   100   197    1
   200   101   198    1
   201   101   199    1
   202   102   200    1
   203   102   201    1
   204   105   202    1
   205   106   203    1
   206   107   204    1
   207   108   205    1
   208   111   206    1
   209   111   207    1
   210   112   208    1
   211   112   209    1
   212   113   210    1
   213   113   211    1
   214   116   212    1
   215   117   213    1
   216   118   214    1
   217   119   215    1
   218   122   216    1
   219   122   217    1
   220   124   218    1
   221   124   219    1
   222   126   220    1
   223   127   221    1
   224   135   222    1
   225   136   223    1
   226   136   224    1
   227   137   225    1
   228   137   226    1
   229   137   227    1
   230   138   228    1
   231   138   229    1
   232   138   230    1
   233   139   231    1
   234   140   232    1
   235   141   233    1
   236    15   234    1
   237    68   235    1
   238    68   236    1
   239    23   237    1
   240    83   238    1
   241    84   239    1
   242    85   240    1
   243    86   241    1
   244    89   242    1
   245    90   243    1
   246    90   244    1
   247    90   245    1
   248    91   246    1
   249    92   247    1
   250    93   248    1
   251    93   249    1
   252    96   250    1
   253    55   251    1
   254    19   252    1
   255    19   253    1
   256    14   254    1
   257    41   255    1
   258    64   256    1
   259    52   257    1
   260    65   258    1
   261    13   259    1
   262    13   260    1
   263    13   261    1
   264    74   262    1
   265    56   263    1
   266    56   264    1
   267    70   265    1
   268   143   266    1
   269   143   267    1
   270   145   268    1
   271   146   269    1
   272   147   270    1
   273     9   271    1
   274     8   272    1
   275    51   273    1
   276    50   274    1
   277    12   275    1
   278    63   276    1
   279    63   277    1
   280    63   278    1
   281    40   279    1
   282    16   280    1
   283    47   281    1
   284     2   282    1
   285    46   283    1
   286    60   284    1
@<TRIPOS>SUBSTRUCTURE
     1 THR5        1 GROUP             0 B     THR     0  
     2 THR6        8 GROUP             0 B     THR     0  
     3 TYR7       15 GROUP             0 B     TYR     0  
     4 ALA8       27 GROUP             0 B     ALA     0  
     5 ASP9       32 GROUP             0 B     ASP     0  
     6 PHE10      40 GROUP             0 B     PHE     0  
     7 ILE11      51 GROUP             0 B     ILE     0  
     8 ALA12      59 GROUP             0 B     ALA     0  
     9 SER13      64 GROUP             0 B     SER     0  
    10 GLY14      70 GROUP             0 B     GLY     0  
    11 ARG15      74 GROUP             0 B     ARG     0  
    12 THR16      85 GROUP             0 B     THR     0  
    13 GLY17      92 GROUP             0 B     GLY     0  
    14 ARG18      96 GROUP             0 B     ARG     0  
    15 ARG19     107 GROUP             0 B     ARG     0  
    16 ASN20     118 GROUP             0 B     ASN     0  
    17 ALA21     126 GROUP             0 B     ALA     0  
    18 ILE22     131 GROUP             0 B     ILE     0  
    19 HIS23     139 GROUP             0 B     HIS     0  
@<TRIPOS>SET
CCDC_LIGAND STATIC ATOMS
284 1 2 3 4 5 6 7 8 9 \
10 11 12 13 14 15 16 17 18 19 \
20 21 22 23 24 25 26 27 28 29 \
30 31 32 33 34 35 36 37 38 39 \
40 41 42 43 44 45 46 47 48 49 \
50 51 52 53 54 55 56 57 58 59 \
60 61 62 63 64 65 66 67 68 69 \
70 71 72 73 74 75 76 77 78 79 \
80 81 82 83 84 85 86 87 88 89 \
90 91 92 93 94 95 96 97 98 99 \
100 101 102 103 104 105 106 107 108 109 \
110 111 112 113 114 115 116 117 118 119 \
120 121 122 123 124 125 126 127 128 129 \
130 131 132 133 134 135 136 137 138 139 \
140 141 142 143 144 145 146 147 148 149 \
150 151 152 153 154 155 156 157 158 159 \
160 161 162 163 164 165 166 167 168 169 \
170 171 172 173 174 175 176 177 178 179 \
180 181 182 183 184 185 186 187 188 189 \
190 191 192 193 194 195 196 197 198 199 \
200 201 202 203 204 205 206 207 208 209 \
210 211 212 213 214 215 216 217 218 219 \
220 221 222 223 224 225 226 227 228 229 \
230 231 232 233 234 235 236 237 238 239 \
240 241 242 243 244 245 246 247 248 249 \
250 251 252 253 254 255 256 257 258 259 \
260 261 262 263 264 265 266 267 268 269 \
270 271 272 273 274 275 276 277 278 279 \
280 281 282 283 284 
