@<TRIPOS>MOLECULE
A:2SB2001
    35    36     1     0     1
SMALL
NO_CHARGES
****
Generated from the CSD

@<TRIPOS>ATOM
     1 C1      23.6580 -11.0120   0.4860   C.ar      1 2SB2001   0.0000
     2 N1      23.4490  -8.5860   0.5120   N.3       1 2SB2001   0.0000
     3 O1      25.9560  -9.3740  -0.5100   O.2       1 2SB2001   0.0000
     4 C2      24.1600  -9.7150   1.0330   C.3       1 2SB2001   0.0000
     5 N2      26.5450  -9.7990   1.6470   N.am      1 2SB2001   0.0000
     6 O2      34.0400  -9.9680   3.2130   O.3       1 2SB2001   0.0000
     7 C3      25.5900  -9.6030   0.6380   C.2       1 2SB2001   0.0000
     8 N3      27.8470  -9.7290   1.3280   N.2       1 2SB2001   0.0000
     9 C4      28.5400  -9.9630   2.3690   C.2       1 2SB2001   0.0000
    10 C5      30.0090  -9.9580   2.4070   C.ar      1 2SB2001   0.0000
    11 C6      23.2100 -11.0960  -0.8160   C.ar      1 2SB2001   0.0000
    12 C7      22.7480 -12.3090  -1.3120   C.ar      1 2SB2001   0.0000
    13 C8      22.7490 -13.4390  -0.5100   C.ar      1 2SB2001   0.0000
    14 C9      23.1990 -13.3530   0.7950   C.ar      1 2SB2001   0.0000
    15 C10     23.6560 -12.1440   1.2950   C.ar      1 2SB2001   0.0000
    16 C11     30.4640  -9.9440   3.6900   C.ar      1 2SB2001   0.0000
    17 C12     31.8080  -9.9510   3.8980   C.ar      1 2SB2001   0.0000
    18 C13     32.7070  -9.9670   2.8680   C.ar      1 2SB2001   0.0000
    19 C14     32.2460  -9.9800   1.5470   C.ar      1 2SB2001   0.0000
    20 C15     30.8630  -9.9750   1.3050   C.ar      1 2SB2001   0.0000
    21 BR1     32.3950  -9.9420   5.7230   Br        1 2SB2001   0.0000
    22 H1      22.3833 -12.3719  -2.3362   H         1 2SB2001   0.0000
    23 H2      22.3970 -14.3906  -0.9055   H         1 2SB2001   0.0000
    24 H3      22.4658  -8.6656   0.7512   H         1 2SB2001   0.0000
    25 H4      23.8269  -7.7337   0.9132   H         1 2SB2001   0.0000
    26 H5      29.7694  -9.9276   4.5285   H         1 2SB2001   0.0000
    27 H6      24.0137 -12.0799   2.3216   H         1 2SB2001   0.0000
    28 H7      24.0824  -9.7240   2.1192   H         1 2SB2001   0.0000
    29 H8      26.2565  -9.9903   2.6011   H         1 2SB2001   0.0000
    30 H9      32.9510  -9.9938   0.7171   H         1 2SB2001   0.0000
    31 H10     30.4700  -9.9841   0.2894   H         1 2SB2001   0.0000
    32 H11     28.0088 -10.1817   3.2941   H         1 2SB2001   0.0000
    33 H12     23.2184 -10.2134  -1.4539   H         1 2SB2001   0.0000
    34 H13     34.2400 -10.7730   3.7589   H         1 2SB2001   0.0000
    35 H14     23.1942 -14.2371   1.4309   H         1 2SB2001   0.0000
@<TRIPOS>BOND
     1     1     4    1
     2     2     4    1
     3     3     7    2
     4     4     7    1
     5     5     7   am
     6     5     8    1
     7     8     9    2
     8     9    10    1
     9     1    11   ar
    10    11    12   ar
    11    12    13   ar
    12    13    14   ar
    13     1    15   ar
    14    14    15   ar
    15    10    16   ar
    16    16    17   ar
    17     6    18    1
    18    17    18   ar
    19    18    19   ar
    20    10    20   ar
    21    19    20   ar
    22    17    21    1
    23    12    22    1
    24    13    23    1
    25     2    24    1
    26     2    25    1
    27    16    26    1
    28    15    27    1
    29     4    28    1
    30     5    29    1
    31    19    30    1
    32    20    31    1
    33     9    32    1
    34    11    33    1
    35     6    34    1
    36    14    35    1
@<TRIPOS>SUBSTRUCTURE
     1 2SB2001     1 GROUP             0 A     2SB     0  
@<TRIPOS>SET
CCDC_LIGAND STATIC ATOMS
35 1 2 3 4 5 6 7 8 9 \
10 11 12 13 14 15 16 17 18 19 \
20 21 22 23 24 25 26 27 28 29 \
30 31 32 33 34 35 
