#       Name:                example_1
#       Creating user name   hitesit
#       Creation time:       Mon Nov  6 23:30:26 2023


#       File generated by GOLD software.
#

@<TRIPOS>MOLECULE
example_1|example_1_prep|mol2|1|dock3
    55    58     1
SMALL
NO_CHARGES


@<TRIPOS>ATOM
      1 O1          20.1986 -29.4926  48.5860 O.3            1 RES1               0.0000
      2 C2          20.7354 -29.9555  47.4107 C.ar           1 RES1               0.0000
      3 C3          20.9551 -29.6685  49.7809 C.3            1 RES1               0.0000
      4 C4          19.8184 -30.2935  46.4042 C.ar           1 RES1               0.0000
      5 C5          22.1055 -30.0977  47.1667 C.ar           1 RES1               0.0000
      6 C6          20.0359 -29.4031  50.9596 C.3            1 RES1               0.0000
      7 O7          18.4927 -30.1195  46.7078 O.3            1 RES1               0.0000
      8 C8          20.2976 -30.7757  45.1848 C.ar           1 RES1               0.0000
      9 C9          22.5939 -30.5725  45.9564 C.ar           1 RES1               0.0000
     10 C10         17.5478 -30.2442  45.6552 C.3            1 RES1               0.0000
     11 C11         21.6892 -30.9299  44.9512 C.ar           1 RES1               0.0000
     12 N12         23.9171 -30.6625  45.8045 N.ar           1 RES1               0.0000
     13 C13         22.2639 -31.4153  43.7611 C.ar           1 RES1               0.0000
     14 C14         24.3709 -31.1120  44.6265 C.ar           1 RES1               0.0000
     15 N15         23.5960 -31.4765  43.5958 N.ar           1 RES1               0.0000
     16 N16         21.4499 -31.8045  42.7004 N.pl3          1 RES1               0.0000
     17 C17         25.8531 -31.1694  44.4311 C.3            1 RES1               0.0000
     18 C18         21.8368 -32.8961  41.8175 C.3            1 RES1               0.0000
     19 C19         21.2870 -34.2004  42.3791 C.ar           1 RES1               0.0000
     20 C20         21.3353 -32.5709  40.4058 C.3            1 RES1               0.0000
     21 C21         22.0984 -35.1540  43.0239 C.ar           1 RES1               0.0000
     22 C22         19.9276 -34.4937  42.2038 C.ar           1 RES1               0.0000
     23 C23         21.5753 -36.3640  43.5140 C.ar           1 RES1               0.0000
     24 C24         19.3909 -35.6870  42.6790 C.ar           1 RES1               0.0000
     25 C25         22.4279 -37.3465  44.1870 C.2            1 RES1               0.0000
     26 C26         20.2080 -36.6119  43.3307 C.ar           1 RES1               0.0000
     27 C27         22.1063 -38.3976  44.9448 C.2            1 RES1               0.0000
     28 C28         23.9157 -37.3671  44.1456 C.3            1 RES1               0.0000
     29 N29         23.1944 -39.0894  45.4019 N.2            1 RES1               0.0000
     30 N30         24.2542 -38.5491  44.9814 N.2            1 RES1               0.0000
     31 H1          21.3358 -30.6876  49.8309 H              1 RES1               0.0000
     32 H2          21.7889 -28.9683  49.7971 H              1 RES1               0.0000
     33 H3          22.8115 -29.8275  47.9506 H              1 RES1               0.0000
     34 H4          20.5901 -29.5309  51.8882 H              1 RES1               0.0000
     35 H5          19.2024 -30.1036  50.9349 H              1 RES1               0.0000
     36 H6          19.6556 -28.3842  50.9011 H              1 RES1               0.0000
     37 H7          19.5912 -31.0383  44.3987 H              1 RES1               0.0000
     38 H8          16.5447 -30.0808  46.0465 H              1 RES1               0.0000
     39 H9          17.6119 -31.2431  45.2263 H              1 RES1               0.0000
     40 H10         17.7621 -29.5042  44.8854 H              1 RES1               0.0000
     41 H11         20.5728 -31.3196  42.5401 H              1 RES1               0.0000
     42 H12         26.0734 -31.5513  43.4354 H              1 RES1               0.0000
     43 H13         26.2924 -31.8288  45.1782 H              1 RES1               0.0000
     44 H14         26.2722 -30.1700  44.5376 H              1 RES1               0.0000
     45 H15         22.9238 -32.9573  41.7954 H              1 RES1               0.0000
     46 H16         21.7696 -31.6288  40.0743 H              1 RES1               0.0000
     47 H17         20.2497 -32.4862  40.4168 H              1 RES1               0.0000
     48 H18         21.6305 -33.3666  39.7235 H              1 RES1               0.0000
     49 H19         23.1608 -34.9487  43.1466 H              1 RES1               0.0000
     50 H20         19.2845 -33.7805  41.6905 H              1 RES1               0.0000
     51 H21         18.3317 -35.8992  42.5419 H              1 RES1               0.0000
     52 H22         19.7767 -37.5402  43.7026 H              1 RES1               0.0000
     53 H23         21.0793 -38.6766  45.1760 H              1 RES1               0.0000
     54 H24         24.3322 -36.4548  44.5701 H              1 RES1               0.0000
     55 H25         24.2777 -37.4914  43.1261 H              1 RES1               0.0000
@<TRIPOS>BOND
    1    1    2 1     
    2    1    3 1     
    3    2    4 ar    
    4    2    5 ar    
    5    3    6 1     
    6    4    7 1     
    7    4    8 ar    
    8    5    9 ar    
    9    7   10 1     
   10    8   11 ar    
   11    9   12 ar    
   12   11   13 ar    
   13   12   14 ar    
   14   13   15 ar    
   15   13   16 1     
   16   14   17 1     
   17   16   18 1     
   18   18   19 1     
   19   18   20 1     
   20   19   21 ar    
   21   19   22 ar    
   22   21   23 ar    
   23   22   24 ar    
   24   23   25 1     
   25   23   26 ar    
   26   25   27 2     
   27   25   28 1     
   28   27   29 1     
   29   28   30 1     
   30    9   11 ar    
   31   14   15 ar    
   32   24   26 ar    
   33   29   30 2     
   34    3   31 1     
   35    3   32 1     
   36    5   33 1     
   37    6   34 1     
   38    6   35 1     
   39    6   36 1     
   40    8   37 1     
   41   10   38 1     
   42   10   39 1     
   43   10   40 1     
   44   16   41 1     
   45   17   42 1     
   46   17   43 1     
   47   17   44 1     
   48   18   45 1     
   49   20   46 1     
   50   20   47 1     
   51   20   48 1     
   52   21   49 1     
   53   22   50 1     
   54   24   51 1     
   55   26   52 1     
   56   27   53 1     
   57   28   54 1     
   58   28   55 1     
@<TRIPOS>SUBSTRUCTURE
      1 RES1           1
@<TRIPOS>SET
DONOR_HYDROGENS      STATIC     ATOMS    <user>   **** ""
1 41
ATOM$RED        STATIC     ATOMS    COLORGROUP SYSTEM
1 41
@<TRIPOS>COMMENT
> <Gold.Version>
2022.3.0

> <Gold.Id.Protein>
unknown|5ovf_clean|pdb

> <Gold.Protein.ActiveResidues>
 ILE839  VAL852  ILE856  LEU859  VAL871  LEU872  GLU873  VAL874  VAL875  SER876 
 ALA877  MET878  ASN879  SER880  SER881  PRO882  VAL883  TYR884  ARG885  LEU886 
 ASP887  HIS888  THR889  PHE890  GLU891  GLN892  ILE893  PRO894  SER895  ARG896 
 GLN897  LYS898  LYS899  ILE900  LEU901  GLU902  GLU903  ALA904  HIS905  GLU906 
 LEU907  SER908  GLU909  LYS914  GLU836  ILE839  VAL852  ILE855  ILE856  LEU859 
 GLN863  VAL871  LEU872  VAL874  VAL875  SER876  ALA877  MET878  ASN879  SER880 
 SER881  PRO882  VAL883  TYR884  ARG885  LEU886  ASP887  HIS888  THR889  PHE890 
 GLU891  GLN892  ILE893  PRO894  SER895  ARG896  GLN897  LYS898  LYS899  ILE900 
 LEU901  GLU902  GLU903  ALA904  HIS905  GLU906  LEU907  SER908  GLU909  ASP910 
 LYS914 

> <Gold.Score>
     Fitness  S(hb_ext) S(vdw_ext)  S(hb_int)    S(int)     S(con)      intcor
     78.54       0.72      59.90       0.00      -4.53      -0.00      -8.92

> <Gold.Goldscore.Fitness>
78.5439

> <Gold.Goldscore.Internal.Vdw>
-8.4351

> <Gold.Goldscore.Internal.Torsion>
-5.0201

> <Gold.Goldscore.External.Vdw>
59.8951

> <Gold.Goldscore.Internal.HBond>
0.0000

> <Gold.Goldscore.External.HBond>
0.7184

> <Gold.Goldscore.Internal.Correction>
-8.9249

> <Gold.Goldscore.Constraint.Score>
-0.0000

> <Gold.Goldscore.Reference.RMSD>
0.7893

> <Gold.Goldscore.Hbonds>
donor molecule, donor type, donor heavy atom, donor atom, acceptor molecule, acceptor atom, score
      L1  H    16    41       P1  2553  0.36

> <Gold.Goldscore.Internal.Vdw.Weighted>
-8.4351

> <Gold.Goldscore.Internal.Torsion.Weighted>
-5.0201

> <Gold.Goldscore.External.Vdw.Weighted>
82.3558

> <Gold.Goldscore.Internal.HBond.Weighted>
0.0000

> <Gold.Goldscore.External.HBond.Weighted>
0.7184

> <Gold.Goldscore.Internal.Correction.Weighted>
-8.9249

> <Gold.Rescore>
     Score         DG    S(hbond)    S(metal)    S(lipo)     H(rot)  DE(clash)    DE(int)    DE(con)     intcor
     32.44     -34.84       0.88        0.00     261.62       1.63       0.88       1.52       0.00       ----

> <Gold.Chemscore.Fitness>
32.4389

> <Gold.Chemscore.DG>
-34.8418

> <Gold.Chemscore.ZeroCoef>
-5.4800

> <Gold.Chemscore.Hbond>
0.8753

> <Gold.Chemscore.Metal>
0.0000

> <Gold.Chemscore.Lipo>
261.6214

> <Gold.Chemscore.Internal_Hbond>
0.0000

> <Gold.Chemscore.DEClash>
0.8802

> <Gold.Chemscore.DEInternal>
1.5227

> <Gold.Chemscore.Rot>
1.6294

> <Gold.Chemscore.Internal.Correction>
   9.000000E+99

> <Gold.Chemscore.Constraint>
0.0000

> <Gold.Chemscore.Reference.RMSD>
0.0000

> <Gold.Chemscore.Hbonds>
donor molecule, donor type, donor heavy atom, donor atom, acceptor molecule, acceptor atom, score
      L1  H    16    41       P1  2553  0.72

> <Gold.Chemscore.Hbond.Weighted>
-2.9234

> <Gold.Chemscore.Metal.Weighted>
-0.0000

> <Gold.Chemscore.Lipo.Weighted>
-30.6097

> <Gold.Chemscore.Internal_Hbond.Weighted>
0.0000

> <Gold.Chemscore.DEClash.Weighted>
0.8802

> <Gold.Chemscore.DEInternal.Weighted>
1.5227

> <Gold.Chemscore.Rot.Weighted>
4.1713

> <Gold.Chemscore.Internal.Correction.Weighted>
   9.000000E+99

> <Gold.Reference.RMSD>
0.7893

#       Name:                example_1
#       Creating user name   hitesit
#       Creation time:       Mon Nov  6 23:30:14 2023


#       File generated by GOLD software.
#

@<TRIPOS>MOLECULE
example_1|example_1_prep|mol2|1|dock1
    55    58     1
SMALL
NO_CHARGES


@<TRIPOS>ATOM
      1 O1          20.0972 -29.5630  48.5708 O.3            1 RES1               0.0000
      2 C2          20.6544 -30.0200  47.4027 C.ar           1 RES1               0.0000
      3 C3          20.8592 -29.6890  49.7685 C.3            1 RES1               0.0000
      4 C4          19.7590 -30.2976  46.3590 C.ar           1 RES1               0.0000
      5 C5          22.0252 -30.2118  47.2002 C.ar           1 RES1               0.0000
      6 C6          19.9262 -29.4554  50.9430 C.3            1 RES1               0.0000
      7 O7          18.4318 -30.0772  46.6234 O.3            1 RES1               0.0000
      8 C8          20.2594 -30.7707  45.1445 C.ar           1 RES1               0.0000
      9 C9          22.5348 -30.6781  45.9952 C.ar           1 RES1               0.0000
     10 C10         17.5038 -30.2600  45.5642 C.3            1 RES1               0.0000
     11 C11         21.6508 -30.9755  44.9527 C.ar           1 RES1               0.0000
     12 N12         23.8577 -30.8179  45.8843 N.ar           1 RES1               0.0000
     13 C13         22.2455 -31.4562  43.7706 C.ar           1 RES1               0.0000
     14 C14         24.3326 -31.2581  44.7112 C.ar           1 RES1               0.0000
     15 N15         23.5788 -31.5673  43.6472 N.ar           1 RES1               0.0000
     16 N16         21.4527 -31.7878  42.6748 N.pl3          1 RES1               0.0000
     17 C17         25.8170 -31.3708  44.5629 C.3            1 RES1               0.0000
     18 C18         21.8219 -32.8780  41.7826 C.3            1 RES1               0.0000
     19 C19         21.2798 -34.1826  42.3507 C.ar           1 RES1               0.0000
     20 C20         21.2963 -32.5485  40.3807 C.3            1 RES1               0.0000
     21 C21         22.0998 -35.1368  42.9838 C.ar           1 RES1               0.0000
     22 C22         19.9182 -34.4759  42.1936 C.ar           1 RES1               0.0000
     23 C23         21.5833 -36.3471  43.4801 C.ar           1 RES1               0.0000
     24 C24         19.3879 -35.6695  42.6751 C.ar           1 RES1               0.0000
     25 C25         22.4449 -37.3300  44.1409 C.2            1 RES1               0.0000
     26 C26         20.2137 -36.5949  43.3152 C.ar           1 RES1               0.0000
     27 C27         22.1329 -38.3963  44.8812 C.2            1 RES1               0.0000
     28 C28         23.9330 -37.3328  44.1044 C.3            1 RES1               0.0000
     29 N29         23.2274 -39.0826  45.3315 N.2            1 RES1               0.0000
     30 N30         24.2824 -38.5237  44.9230 N.2            1 RES1               0.0000
     31 H1          21.2887 -30.6879  49.8302 H              1 RES1               0.0000
     32 H2          21.6582 -28.9492  49.7780 H              1 RES1               0.0000
     33 H3          22.7147 -29.9884  48.0129 H              1 RES1               0.0000
     34 H4          20.4843 -29.5460  51.8737 H              1 RES1               0.0000
     35 H5          19.1276 -30.1956  50.9251 H              1 RES1               0.0000
     36 H6          19.4972 -28.4569  50.8728 H              1 RES1               0.0000
     37 H7          19.5698 -30.9864  44.3296 H              1 RES1               0.0000
     38 H8          16.4973 -30.0501  45.9232 H              1 RES1               0.0000
     39 H9          17.5555 -31.2884  45.2097 H              1 RES1               0.0000
     40 H10         17.7468 -29.5819  44.7475 H              1 RES1               0.0000
     41 H11         20.6038 -31.2613  42.4950 H              1 RES1               0.0000
     42 H12         26.0554 -31.7383  43.5659 H              1 RES1               0.0000
     43 H13         26.2046 -32.0643  45.3077 H              1 RES1               0.0000
     44 H14         26.2716 -30.3919  44.7072 H              1 RES1               0.0000
     45 H15         22.9083 -32.9411  41.7411 H              1 RES1               0.0000
     46 H16         21.7263 -31.6064  40.0438 H              1 RES1               0.0000
     47 H17         20.2111 -32.4619  40.4110 H              1 RES1               0.0000
     48 H18         21.5778 -33.3431  39.6914 H              1 RES1               0.0000
     49 H19         23.1638 -34.9315  43.0923 H              1 RES1               0.0000
     50 H20         19.2681 -33.7623  41.6894 H              1 RES1               0.0000
     51 H21         18.3269 -35.8816  42.5522 H              1 RES1               0.0000
     52 H22         19.7875 -37.5234  43.6922 H              1 RES1               0.0000
     53 H23         21.1085 -38.6906  45.1045 H              1 RES1               0.0000
     54 H24         24.3375 -36.4225  44.5444 H              1 RES1               0.0000
     55 H25         24.2998 -37.4372  43.0844 H              1 RES1               0.0000
@<TRIPOS>BOND
    1    1    2 1     
    2    1    3 1     
    3    2    4 ar    
    4    2    5 ar    
    5    3    6 1     
    6    4    7 1     
    7    4    8 ar    
    8    5    9 ar    
    9    7   10 1     
   10    8   11 ar    
   11    9   12 ar    
   12   11   13 ar    
   13   12   14 ar    
   14   13   15 ar    
   15   13   16 1     
   16   14   17 1     
   17   16   18 1     
   18   18   19 1     
   19   18   20 1     
   20   19   21 ar    
   21   19   22 ar    
   22   21   23 ar    
   23   22   24 ar    
   24   23   25 1     
   25   23   26 ar    
   26   25   27 2     
   27   25   28 1     
   28   27   29 1     
   29   28   30 1     
   30    9   11 ar    
   31   14   15 ar    
   32   24   26 ar    
   33   29   30 2     
   34    3   31 1     
   35    3   32 1     
   36    5   33 1     
   37    6   34 1     
   38    6   35 1     
   39    6   36 1     
   40    8   37 1     
   41   10   38 1     
   42   10   39 1     
   43   10   40 1     
   44   16   41 1     
   45   17   42 1     
   46   17   43 1     
   47   17   44 1     
   48   18   45 1     
   49   20   46 1     
   50   20   47 1     
   51   20   48 1     
   52   21   49 1     
   53   22   50 1     
   54   24   51 1     
   55   26   52 1     
   56   27   53 1     
   57   28   54 1     
   58   28   55 1     
@<TRIPOS>SUBSTRUCTURE
      1 RES1           1
@<TRIPOS>SET
DONOR_HYDROGENS      STATIC     ATOMS    <user>   **** ""
1 41
ATOM$RED        STATIC     ATOMS    COLORGROUP SYSTEM
1 41
@<TRIPOS>COMMENT
> <Gold.Version>
2022.3.0

> <Gold.Id.Protein>
unknown|5ovf_clean|pdb

> <Gold.Protein.ActiveResidues>
 ILE839  VAL852  ILE856  LEU859  VAL871  LEU872  GLU873  VAL874  VAL875  SER876 
 ALA877  MET878  ASN879  SER880  SER881  PRO882  VAL883  TYR884  ARG885  LEU886 
 ASP887  HIS888  THR889  PHE890  GLU891  GLN892  ILE893  PRO894  SER895  ARG896 
 GLN897  LYS898  LYS899  ILE900  LEU901  GLU902  GLU903  ALA904  HIS905  GLU906 
 LEU907  SER908  GLU909  LYS914  GLU836  ILE839  VAL852  ILE855  ILE856  LEU859 
 GLN863  VAL871  LEU872  VAL874  VAL875  SER876  ALA877  MET878  ASN879  SER880 
 SER881  PRO882  VAL883  TYR884  ARG885  LEU886  ASP887  HIS888  THR889  PHE890 
 GLU891  GLN892  ILE893  PRO894  SER895  ARG896  GLN897  LYS898  LYS899  ILE900 
 LEU901  GLU902  GLU903  ALA904  HIS905  GLU906  LEU907  SER908  GLU909  ASP910 
 LYS914 

> <Gold.Score>
     Fitness  S(hb_ext) S(vdw_ext)  S(hb_int)    S(int)     S(con)      intcor
     78.31       0.46      59.76       0.00      -4.33      -0.00      -8.92

> <Gold.Goldscore.Fitness>
78.3056

> <Gold.Goldscore.Internal.Vdw>
-8.4812

> <Gold.Goldscore.Internal.Torsion>
-4.7709

> <Gold.Goldscore.External.Vdw>
59.7601

> <Gold.Goldscore.Internal.HBond>
0.0000

> <Gold.Goldscore.External.HBond>
0.4627

> <Gold.Goldscore.Internal.Correction>
-8.9249

> <Gold.Goldscore.Constraint.Score>
-0.0000

> <Gold.Goldscore.Reference.RMSD>
0.8040

> <Gold.Goldscore.Hbonds>
donor molecule, donor type, donor heavy atom, donor atom, acceptor molecule, acceptor atom, score
      L1  H    16    41       P1  2553  0.23

> <Gold.Goldscore.Internal.Vdw.Weighted>
-8.4812

> <Gold.Goldscore.Internal.Torsion.Weighted>
-4.7709

> <Gold.Goldscore.External.Vdw.Weighted>
82.1701

> <Gold.Goldscore.Internal.HBond.Weighted>
0.0000

> <Gold.Goldscore.External.HBond.Weighted>
0.4627

> <Gold.Goldscore.Internal.Correction.Weighted>
-8.9249

> <Gold.Rescore>
     Score         DG    S(hbond)    S(metal)    S(lipo)     H(rot)  DE(clash)    DE(int)    DE(con)     intcor
     33.00     -35.16       0.88        0.00     264.21       1.63       0.68       1.47       0.00       ----

> <Gold.Chemscore.Fitness>
33.0010

> <Gold.Chemscore.DG>
-35.1570

> <Gold.Chemscore.ZeroCoef>
-5.4800

> <Gold.Chemscore.Hbond>
0.8791

> <Gold.Chemscore.Metal>
0.0000

> <Gold.Chemscore.Lipo>
264.2072

> <Gold.Chemscore.Internal_Hbond>
0.0000

> <Gold.Chemscore.DEClash>
0.6820

> <Gold.Chemscore.DEInternal>
1.4741

> <Gold.Chemscore.Rot>
1.6294

> <Gold.Chemscore.Internal.Correction>
   9.000000E+99

> <Gold.Chemscore.Constraint>
0.0000

> <Gold.Chemscore.Reference.RMSD>
0.0000

> <Gold.Chemscore.Hbonds>
donor molecule, donor type, donor heavy atom, donor atom, acceptor molecule, acceptor atom, score
      L1  H    16    41       P1  2553  0.59

> <Gold.Chemscore.Hbond.Weighted>
-2.9361

> <Gold.Chemscore.Metal.Weighted>
-0.0000

> <Gold.Chemscore.Lipo.Weighted>
-30.9122

> <Gold.Chemscore.Internal_Hbond.Weighted>
0.0000

> <Gold.Chemscore.DEClash.Weighted>
0.6820

> <Gold.Chemscore.DEInternal.Weighted>
1.4741

> <Gold.Chemscore.Rot.Weighted>
4.1713

> <Gold.Chemscore.Internal.Correction.Weighted>
   9.000000E+99

> <Gold.Reference.RMSD>
0.8040

#       Name:                example_1
#       Creating user name   hitesit
#       Creation time:       Mon Nov  6 23:30:57 2023


#       File generated by GOLD software.
#

@<TRIPOS>MOLECULE
example_1|example_1_prep|mol2|1|dock8
    55    58     1
SMALL
NO_CHARGES


@<TRIPOS>ATOM
      1 O1          20.1429 -29.6381  48.6028 O.3            1 RES1               0.0000
      2 C2          20.6923 -30.0746  47.4232 C.ar           1 RES1               0.0000
      3 C3          20.9227 -29.7620  49.7891 C.3            1 RES1               0.0000
      4 C4          19.7887 -30.3501  46.3861 C.ar           1 RES1               0.0000
      5 C5          22.0630 -30.2478  47.2034 C.ar           1 RES1               0.0000
      6 C6          20.0063 -29.5309  50.9772 C.3            1 RES1               0.0000
      7 O7          18.4621 -30.1484  46.6675 O.3            1 RES1               0.0000
      8 C8          20.2811 -30.8027  45.1605 C.ar           1 RES1               0.0000
      9 C9          22.5646 -30.6936  45.9874 C.ar           1 RES1               0.0000
     10 C10         17.5294 -30.2818  45.6051 C.3            1 RES1               0.0000
     11 C11         21.6727 -30.9889  44.9511 C.ar           1 RES1               0.0000
     12 N12         23.8877 -30.8167  45.8604 N.ar           1 RES1               0.0000
     13 C13         22.2597 -31.4484  43.7568 C.ar           1 RES1               0.0000
     14 C14         24.3547 -31.2372  44.6769 C.ar           1 RES1               0.0000
     15 N15         23.5928 -31.5424  43.6176 N.ar           1 RES1               0.0000
     16 N16         21.4588 -31.7761  42.6658 N.pl3          1 RES1               0.0000
     17 C17         25.8386 -31.3307  44.5111 C.3            1 RES1               0.0000
     18 C18         21.8041 -32.8839  41.7858 C.3            1 RES1               0.0000
     19 C19         21.2297 -34.1694  42.3659 C.ar           1 RES1               0.0000
     20 C20         21.2899 -32.5566  40.3792 C.3            1 RES1               0.0000
     21 C21         22.0268 -35.1415  43.0007 C.ar           1 RES1               0.0000
     22 C22         19.8596 -34.4260  42.2186 C.ar           1 RES1               0.0000
     23 C23         21.4802 -36.3338  43.5081 C.ar           1 RES1               0.0000
     24 C24         19.2995 -35.6013  42.7113 C.ar           1 RES1               0.0000
     25 C25         22.3183 -37.3358  44.1706 C.2            1 RES1               0.0000
     26 C26         20.1033 -36.5448  43.3528 C.ar           1 RES1               0.0000
     27 C27         21.9815 -38.3879  44.9202 C.2            1 RES1               0.0000
     28 C28         23.8055 -37.3801  44.1252 C.3            1 RES1               0.0000
     29 N29         23.0593 -39.1012  45.3687 N.2            1 RES1               0.0000
     30 N30         24.1268 -38.5746  44.9500 N.2            1 RES1               0.0000
     31 H1          21.3558 -30.7596  49.8445 H              1 RES1               0.0000
     32 H2          21.7197 -29.0199  49.7870 H              1 RES1               0.0000
     33 H3          22.7588 -30.0262  48.0112 H              1 RES1               0.0000
     34 H4          20.5783 -29.6200  51.8996 H              1 RES1               0.0000
     35 H5          19.2096 -30.2734  50.9710 H              1 RES1               0.0000
     36 H6          19.5736 -28.5336  50.9134 H              1 RES1               0.0000
     37 H7          19.5852 -31.0167  44.3507 H              1 RES1               0.0000
     38 H8          16.5240 -30.0940  45.9789 H              1 RES1               0.0000
     39 H9          17.5832 -31.2910  45.1994 H              1 RES1               0.0000
     40 H10         17.7658 -29.5628  44.8221 H              1 RES1               0.0000
     41 H11         20.6208 -31.2341  42.4808 H              1 RES1               0.0000
     42 H12         26.0702 -31.6835  43.5072 H              1 RES1               0.0000
     43 H13         26.2424 -32.0286  45.2432 H              1 RES1               0.0000
     44 H14         26.2834 -30.3483  44.6622 H              1 RES1               0.0000
     45 H15         22.8888 -32.9733  41.7479 H              1 RES1               0.0000
     46 H16         21.7431 -31.6285  40.0338 H              1 RES1               0.0000
     47 H17         20.2071 -32.4438  40.4057 H              1 RES1               0.0000
     48 H18         21.5542 -33.3648  39.6989 H              1 RES1               0.0000
     49 H19         23.0967 -34.9650  43.1016 H              1 RES1               0.0000
     50 H20         19.2264 -33.6981  41.7134 H              1 RES1               0.0000
     51 H21         18.2323 -35.7849  42.5960 H              1 RES1               0.0000
     52 H22         19.6539 -37.4588  43.7386 H              1 RES1               0.0000
     53 H23         20.9507 -38.6522  45.1517 H              1 RES1               0.0000
     54 H24         24.2378 -36.4784  44.5564 H              1 RES1               0.0000
     55 H25         24.1629 -37.5016  43.1037 H              1 RES1               0.0000
@<TRIPOS>BOND
    1    1    2 1     
    2    1    3 1     
    3    2    4 ar    
    4    2    5 ar    
    5    3    6 1     
    6    4    7 1     
    7    4    8 ar    
    8    5    9 ar    
    9    7   10 1     
   10    8   11 ar    
   11    9   12 ar    
   12   11   13 ar    
   13   12   14 ar    
   14   13   15 ar    
   15   13   16 1     
   16   14   17 1     
   17   16   18 1     
   18   18   19 1     
   19   18   20 1     
   20   19   21 ar    
   21   19   22 ar    
   22   21   23 ar    
   23   22   24 ar    
   24   23   25 1     
   25   23   26 ar    
   26   25   27 2     
   27   25   28 1     
   28   27   29 1     
   29   28   30 1     
   30    9   11 ar    
   31   14   15 ar    
   32   24   26 ar    
   33   29   30 2     
   34    3   31 1     
   35    3   32 1     
   36    5   33 1     
   37    6   34 1     
   38    6   35 1     
   39    6   36 1     
   40    8   37 1     
   41   10   38 1     
   42   10   39 1     
   43   10   40 1     
   44   16   41 1     
   45   17   42 1     
   46   17   43 1     
   47   17   44 1     
   48   18   45 1     
   49   20   46 1     
   50   20   47 1     
   51   20   48 1     
   52   21   49 1     
   53   22   50 1     
   54   24   51 1     
   55   26   52 1     
   56   27   53 1     
   57   28   54 1     
   58   28   55 1     
@<TRIPOS>SUBSTRUCTURE
      1 RES1           1
@<TRIPOS>SET
DONOR_HYDROGENS      STATIC     ATOMS    <user>   **** ""
1 41
ATOM$RED        STATIC     ATOMS    COLORGROUP SYSTEM
1 41
@<TRIPOS>COMMENT
> <Gold.Version>
2022.3.0

> <Gold.Id.Protein>
unknown|5ovf_clean|pdb

> <Gold.Protein.ActiveResidues>
 ILE839  VAL852  ILE856  LEU859  VAL871  LEU872  GLU873  VAL874  VAL875  SER876 
 ALA877  MET878  ASN879  SER880  SER881  PRO882  VAL883  TYR884  ARG885  LEU886 
 ASP887  HIS888  THR889  PHE890  GLU891  GLN892  ILE893  PRO894  SER895  ARG896 
 GLN897  LYS898  LYS899  ILE900  LEU901  GLU902  GLU903  ALA904  HIS905  GLU906 
 LEU907  SER908  GLU909  LYS914  GLU836  ILE839  VAL852  ILE855  ILE856  LEU859 
 GLN863  VAL871  LEU872  VAL874  VAL875  SER876  ALA877  MET878  ASN879  SER880 
 SER881  PRO882  VAL883  TYR884  ARG885  LEU886  ASP887  HIS888  THR889  PHE890 
 GLU891  GLN892  ILE893  PRO894  SER895  ARG896  GLN897  LYS898  LYS899  ILE900 
 LEU901  GLU902  GLU903  ALA904  HIS905  GLU906  LEU907  SER908  GLU909  ASP910 
 LYS914 

> <Gold.Score>
     Fitness  S(hb_ext) S(vdw_ext)  S(hb_int)    S(int)     S(con)      intcor
     77.92       0.38      59.72       0.00      -4.58      -0.00      -8.46

> <Gold.Goldscore.Fitness>
77.9154

> <Gold.Goldscore.Internal.Vdw>
-8.0757

> <Gold.Goldscore.Internal.Torsion>
-4.9681

> <Gold.Goldscore.External.Vdw>
59.7230

> <Gold.Goldscore.Internal.HBond>
0.0000

> <Gold.Goldscore.External.HBond>
0.3786

> <Gold.Goldscore.Internal.Correction>
-8.4614

> <Gold.Goldscore.Constraint.Score>
-0.0000

> <Gold.Goldscore.Reference.RMSD>
0.8174

> <Gold.Goldscore.Hbonds>
donor molecule, donor type, donor heavy atom, donor atom, acceptor molecule, acceptor atom, score
      L1  H    16    41       P1  2553  0.19

> <Gold.Goldscore.Internal.Vdw.Weighted>
-8.0757

> <Gold.Goldscore.Internal.Torsion.Weighted>
-4.9681

> <Gold.Goldscore.External.Vdw.Weighted>
82.1191

> <Gold.Goldscore.Internal.HBond.Weighted>
0.0000

> <Gold.Goldscore.External.HBond.Weighted>
0.3786

> <Gold.Goldscore.Internal.Correction.Weighted>
-8.4614

> <Gold.Rescore>
     Score         DG    S(hbond)    S(metal)    S(lipo)     H(rot)  DE(clash)    DE(int)    DE(con)     intcor
     32.54     -34.75       0.83        0.00     262.12       1.63       0.82       1.38       0.00       ----

> <Gold.Chemscore.Fitness>
32.5414

> <Gold.Chemscore.DG>
-34.7470

> <Gold.Chemscore.ZeroCoef>
-5.4800

> <Gold.Chemscore.Hbond>
0.8294

> <Gold.Chemscore.Metal>
0.0000

> <Gold.Chemscore.Lipo>
262.1193

> <Gold.Chemscore.Internal_Hbond>
0.0000

> <Gold.Chemscore.DEClash>
0.8221

> <Gold.Chemscore.DEInternal>
1.3834

> <Gold.Chemscore.Rot>
1.6294

> <Gold.Chemscore.Internal.Correction>
   9.000000E+99

> <Gold.Chemscore.Constraint>
0.0000

> <Gold.Chemscore.Reference.RMSD>
0.0000

> <Gold.Chemscore.Hbonds>
donor molecule, donor type, donor heavy atom, donor atom, acceptor molecule, acceptor atom, score
      L1  H    16    41       P1  2553  0.53

> <Gold.Chemscore.Hbond.Weighted>
-2.7703

> <Gold.Chemscore.Metal.Weighted>
-0.0000

> <Gold.Chemscore.Lipo.Weighted>
-30.6680

> <Gold.Chemscore.Internal_Hbond.Weighted>
0.0000

> <Gold.Chemscore.DEClash.Weighted>
0.8221

> <Gold.Chemscore.DEInternal.Weighted>
1.3834

> <Gold.Chemscore.Rot.Weighted>
4.1713

> <Gold.Chemscore.Internal.Correction.Weighted>
   9.000000E+99

> <Gold.Reference.RMSD>
0.8174

#       Name:                example_1
#       Creating user name   hitesit
#       Creation time:       Mon Nov  6 23:31:03 2023


#       File generated by GOLD software.
#

@<TRIPOS>MOLECULE
example_1|example_1_prep|mol2|1|dock9
    55    58     1
SMALL
NO_CHARGES


@<TRIPOS>ATOM
      1 O1          20.1747 -29.5241  48.6068 O.3            1 RES1               0.0000
      2 C2          20.7208 -29.9855  47.4352 C.ar           1 RES1               0.0000
      3 C3          20.9327 -29.6788  49.8036 C.3            1 RES1               0.0000
      4 C4          19.8137 -30.2897  46.4092 C.ar           1 RES1               0.0000
      5 C5          22.0913 -30.1572  47.2130 C.ar           1 RES1               0.0000
      6 C6          20.0097 -29.4127  50.9793 C.3            1 RES1               0.0000
      7 O7          18.4875 -30.0879  46.6922 O.3            1 RES1               0.0000
      8 C8          20.3026 -30.7686  45.1922 C.ar           1 RES1               0.0000
      9 C9          22.5893 -30.6290  46.0054 C.ar           1 RES1               0.0000
     10 C10         17.5503 -30.2524  45.6380 C.3            1 RES1               0.0000
     11 C11         21.6941 -30.9528  44.9806 C.ar           1 RES1               0.0000
     12 N12         23.9125 -30.7485  45.8750 N.ar           1 RES1               0.0000
     13 C13         22.2778 -31.4375  43.7946 C.ar           1 RES1               0.0000
     14 C14         24.3760 -31.1945  44.6995 C.ar           1 RES1               0.0000
     15 N15         23.6107 -31.5282  43.6513 N.ar           1 RES1               0.0000
     16 N16         21.4734 -31.7946  42.7155 N.pl3          1 RES1               0.0000
     17 C17         25.8596 -31.2846  44.5288 C.3            1 RES1               0.0000
     18 C18         21.8492 -32.8854  41.8267 C.3            1 RES1               0.0000
     19 C19         21.3047 -34.1899  42.3928 C.ar           1 RES1               0.0000
     20 C20         21.3320 -32.5578  40.4213 C.3            1 RES1               0.0000
     21 C21         22.1219 -35.1438  43.0298 C.ar           1 RES1               0.0000
     22 C22         19.9438 -34.4833  42.2297 C.ar           1 RES1               0.0000
     23 C23         21.6033 -36.3540  43.5241 C.ar           1 RES1               0.0000
     24 C24         19.4115 -35.6768  42.7092 C.ar           1 RES1               0.0000
     25 C25         22.4621 -37.3367  44.1890 C.2            1 RES1               0.0000
     26 C26         20.2345 -36.6020  43.3532 C.ar           1 RES1               0.0000
     27 C27         22.1471 -38.3935  44.9415 C.2            1 RES1               0.0000
     28 C28         23.9498 -37.3506  44.1433 C.3            1 RES1               0.0000
     29 N29         23.2396 -39.0833  45.3915 N.2            1 RES1               0.0000
     30 N30         24.2958 -38.5360  44.9711 N.2            1 RES1               0.0000
     31 H1          21.3257 -30.6927  49.8640 H              1 RES1               0.0000
     32 H2          21.7579 -28.9684  49.8132 H              1 RES1               0.0000
     33 H3          22.7897 -29.9132  48.0121 H              1 RES1               0.0000
     34 H4          20.5651 -29.5245  51.9093 H              1 RES1               0.0000
     35 H5          19.1848 -30.1236  50.9614 H              1 RES1               0.0000
     36 H6          19.6172 -28.3993  50.9105 H              1 RES1               0.0000
     37 H7          19.6040 -31.0049  44.3910 H              1 RES1               0.0000
     38 H8          16.5457 -30.0606  46.0121 H              1 RES1               0.0000
     39 H9          17.6074 -31.2711  45.2572 H              1 RES1               0.0000
     40 H10         17.7791 -29.5519  44.8363 H              1 RES1               0.0000
     41 H11         20.6113 -31.2866  42.5455 H              1 RES1               0.0000
     42 H12         26.0882 -31.6597  43.5324 H              1 RES1               0.0000
     43 H13         26.2702 -31.9631  45.2751 H              1 RES1               0.0000
     44 H14         26.3002 -30.2968  44.6547 H              1 RES1               0.0000
     45 H15         22.9359 -32.9476  41.7921 H              1 RES1               0.0000
     46 H16         21.7634 -31.6157  40.0861 H              1 RES1               0.0000
     47 H17         20.2467 -32.4721  40.4447 H              1 RES1               0.0000
     48 H18         21.6186 -33.3529  39.7345 H              1 RES1               0.0000
     49 H19         23.1854 -34.9384  43.1429 H              1 RES1               0.0000
     50 H20         19.2959 -33.7699  41.7225 H              1 RES1               0.0000
     51 H21         18.3510 -35.8891  42.5817 H              1 RES1               0.0000
     52 H22         19.8066 -37.5304  43.7285 H              1 RES1               0.0000
     53 H23         21.1220 -38.6784  45.1740 H              1 RES1               0.0000
     54 H24         24.3636 -36.4390  44.5719 H              1 RES1               0.0000
     55 H25         24.3094 -37.4674  43.1220 H              1 RES1               0.0000
@<TRIPOS>BOND
    1    1    2 1     
    2    1    3 1     
    3    2    4 ar    
    4    2    5 ar    
    5    3    6 1     
    6    4    7 1     
    7    4    8 ar    
    8    5    9 ar    
    9    7   10 1     
   10    8   11 ar    
   11    9   12 ar    
   12   11   13 ar    
   13   12   14 ar    
   14   13   15 ar    
   15   13   16 1     
   16   14   17 1     
   17   16   18 1     
   18   18   19 1     
   19   18   20 1     
   20   19   21 ar    
   21   19   22 ar    
   22   21   23 ar    
   23   22   24 ar    
   24   23   25 1     
   25   23   26 ar    
   26   25   27 2     
   27   25   28 1     
   28   27   29 1     
   29   28   30 1     
   30    9   11 ar    
   31   14   15 ar    
   32   24   26 ar    
   33   29   30 2     
   34    3   31 1     
   35    3   32 1     
   36    5   33 1     
   37    6   34 1     
   38    6   35 1     
   39    6   36 1     
   40    8   37 1     
   41   10   38 1     
   42   10   39 1     
   43   10   40 1     
   44   16   41 1     
   45   17   42 1     
   46   17   43 1     
   47   17   44 1     
   48   18   45 1     
   49   20   46 1     
   50   20   47 1     
   51   20   48 1     
   52   21   49 1     
   53   22   50 1     
   54   24   51 1     
   55   26   52 1     
   56   27   53 1     
   57   28   54 1     
   58   28   55 1     
@<TRIPOS>SUBSTRUCTURE
      1 RES1           1
@<TRIPOS>SET
DONOR_HYDROGENS      STATIC     ATOMS    <user>   **** ""
1 41
ATOM$RED        STATIC     ATOMS    COLORGROUP SYSTEM
1 41
@<TRIPOS>COMMENT
> <Gold.Version>
2022.3.0

> <Gold.Id.Protein>
unknown|5ovf_clean|pdb

> <Gold.Protein.ActiveResidues>
 ILE839  VAL852  ILE856  LEU859  VAL871  LEU872  GLU873  VAL874  VAL875  SER876 
 ALA877  MET878  ASN879  SER880  SER881  PRO882  VAL883  TYR884  ARG885  LEU886 
 ASP887  HIS888  THR889  PHE890  GLU891  GLN892  ILE893  PRO894  SER895  ARG896 
 GLN897  LYS898  LYS899  ILE900  LEU901  GLU902  GLU903  ALA904  HIS905  GLU906 
 LEU907  SER908  GLU909  LYS914  GLU836  ILE839  VAL852  ILE855  ILE856  LEU859 
 GLN863  VAL871  LEU872  VAL874  VAL875  SER876  ALA877  MET878  ASN879  SER880 
 SER881  PRO882  VAL883  TYR884  ARG885  LEU886  ASP887  HIS888  THR889  PHE890 
 GLU891  GLN892  ILE893  PRO894  SER895  ARG896  GLN897  LYS898  LYS899  ILE900 
 LEU901  GLU902  GLU903  ALA904  HIS905  GLU906  LEU907  SER908  GLU909  ASP910 
 LYS914 

> <Gold.Score>
     Fitness  S(hb_ext) S(vdw_ext)  S(hb_int)    S(int)     S(con)      intcor
     77.91       0.57      59.75       0.00      -4.81      -0.00      -8.46

> <Gold.Goldscore.Fitness>
77.9071

> <Gold.Goldscore.Internal.Vdw>
-8.4262

> <Gold.Goldscore.Internal.Torsion>
-4.8457

> <Gold.Goldscore.External.Vdw>
59.7470

> <Gold.Goldscore.Internal.HBond>
0.0000

> <Gold.Goldscore.External.HBond>
0.5655

> <Gold.Goldscore.Internal.Correction>
-8.4614

> <Gold.Goldscore.Constraint.Score>
-0.0000

> <Gold.Goldscore.Reference.RMSD>
0.7881

> <Gold.Goldscore.Hbonds>
donor molecule, donor type, donor heavy atom, donor atom, acceptor molecule, acceptor atom, score
      L1  H    16    41       P1  2553  0.28

> <Gold.Goldscore.Internal.Vdw.Weighted>
-8.4262

> <Gold.Goldscore.Internal.Torsion.Weighted>
-4.8457

> <Gold.Goldscore.External.Vdw.Weighted>
82.1521

> <Gold.Goldscore.Internal.HBond.Weighted>
0.0000

> <Gold.Goldscore.External.HBond.Weighted>
0.5655

> <Gold.Goldscore.Internal.Correction.Weighted>
-8.4614

> <Gold.Rescore>
     Score         DG    S(hbond)    S(metal)    S(lipo)     H(rot)  DE(clash)    DE(int)    DE(con)     intcor
     31.97     -35.57       0.88        0.00     267.67       1.63       2.00       1.60       0.00       ----

> <Gold.Chemscore.Fitness>
31.9729

> <Gold.Chemscore.DG>
-35.5696

> <Gold.Chemscore.ZeroCoef>
-5.4800

> <Gold.Chemscore.Hbond>
0.8812

> <Gold.Chemscore.Metal>
0.0000

> <Gold.Chemscore.Lipo>
267.6719

> <Gold.Chemscore.Internal_Hbond>
0.0000

> <Gold.Chemscore.DEClash>
1.9967

> <Gold.Chemscore.DEInternal>
1.6000

> <Gold.Chemscore.Rot>
1.6294

> <Gold.Chemscore.Internal.Correction>
   9.000000E+99

> <Gold.Chemscore.Constraint>
0.0000

> <Gold.Chemscore.Reference.RMSD>
0.0000

> <Gold.Chemscore.Hbonds>
donor molecule, donor type, donor heavy atom, donor atom, acceptor molecule, acceptor atom, score
      L1  H    16    41       P1  2553  0.67

> <Gold.Chemscore.Hbond.Weighted>
-2.9433

> <Gold.Chemscore.Metal.Weighted>
-0.0000

> <Gold.Chemscore.Lipo.Weighted>
-31.3176

> <Gold.Chemscore.Internal_Hbond.Weighted>
0.0000

> <Gold.Chemscore.DEClash.Weighted>
1.9967

> <Gold.Chemscore.DEInternal.Weighted>
1.6000

> <Gold.Chemscore.Rot.Weighted>
4.1713

> <Gold.Chemscore.Internal.Correction.Weighted>
   9.000000E+99

> <Gold.Reference.RMSD>
0.7881

#       Name:                example_1
#       Creating user name   hitesit
#       Creation time:       Mon Nov  6 23:30:33 2023


#       File generated by GOLD software.
#

@<TRIPOS>MOLECULE
example_1|example_1_prep|mol2|1|dock4
    55    58     1
SMALL
NO_CHARGES


@<TRIPOS>ATOM
      1 O1          20.2871 -29.4410  48.5512 O.3            1 RES1               0.0000
      2 C2          20.8164 -29.9273  47.3819 C.ar           1 RES1               0.0000
      3 C3          20.9992 -29.6883  49.7606 C.3            1 RES1               0.0000
      4 C4          19.8945 -30.2567  46.3771 C.ar           1 RES1               0.0000
      5 C5          22.1838 -30.1007  47.1425 C.ar           1 RES1               0.0000
      6 C6          20.0651 -29.3964  50.9212 C.3            1 RES1               0.0000
      7 O7          18.5722 -30.0518  46.6759 O.3            1 RES1               0.0000
      8 C8          20.3660 -30.7617  45.1638 C.ar           1 RES1               0.0000
      9 C9          22.6645 -30.5984  45.9383 C.ar           1 RES1               0.0000
     10 C10         17.6237 -30.1988  45.6293 C.3            1 RES1               0.0000
     11 C11         21.7546 -30.9473  44.9349 C.ar           1 RES1               0.0000
     12 N12         23.9858 -30.7177  45.7903 N.ar           1 RES1               0.0000
     13 C13         22.3213 -31.4571  43.7513 C.ar           1 RES1               0.0000
     14 C14         24.4324 -31.1889  44.6181 C.ar           1 RES1               0.0000
     15 N15         23.6521 -31.5479  43.5895 N.ar           1 RES1               0.0000
     16 N16         21.5014 -31.8404  42.6929 N.pl3          1 RES1               0.0000
     17 C17         25.9135 -31.2793  44.4266 C.3            1 RES1               0.0000
     18 C18         21.8827 -32.9281  41.8028 C.3            1 RES1               0.0000
     19 C19         21.3510 -34.2370  42.3709 C.ar           1 RES1               0.0000
     20 C20         21.3575 -32.6048  40.3993 C.3            1 RES1               0.0000
     21 C21         22.1763 -35.1786  43.0156 C.ar           1 RES1               0.0000
     22 C22         19.9945 -34.5473  42.2020 C.ar           1 RES1               0.0000
     23 C23         21.6698 -36.3932  43.5117 C.ar           1 RES1               0.0000
     24 C24         19.4742 -35.7454  42.6833 C.ar           1 RES1               0.0000
     25 C25         22.5369 -37.3630  44.1846 C.2            1 RES1               0.0000
     26 C26         20.3049 -36.6582  43.3348 C.ar           1 RES1               0.0000
     27 C27         22.2310 -38.4161  44.9461 C.2            1 RES1               0.0000
     28 C28         24.0247 -37.3649  44.1385 C.3            1 RES1               0.0000
     29 N29         23.3293 -39.0929  45.4016 N.2            1 RES1               0.0000
     30 N30         24.3808 -38.5403  44.9763 N.2            1 RES1               0.0000
     31 H1          21.3186 -30.7289  49.7955 H              1 RES1               0.0000
     32 H2          21.8715 -29.0388  49.8155 H              1 RES1               0.0000
     33 H3          22.8936 -29.8372  47.9251 H              1 RES1               0.0000
     34 H4          20.5855 -29.5777  51.8604 H              1 RES1               0.0000
     35 H5          19.1934 -30.0461  50.8578 H              1 RES1               0.0000
     36 H6          19.7464 -28.3560  50.8778 H              1 RES1               0.0000
     37 H7          19.6558 -31.0176  44.3789 H              1 RES1               0.0000
     38 H8          16.6239 -30.0065  46.0158 H              1 RES1               0.0000
     39 H9          17.6718 -31.2130  45.2357 H              1 RES1               0.0000
     40 H10         17.8480 -29.4897  44.8339 H              1 RES1               0.0000
     41 H11         20.6240 -31.3538  42.5395 H              1 RES1               0.0000
     42 H12         26.1278 -31.6762  43.4354 H              1 RES1               0.0000
     43 H13         26.3374 -31.9398  45.1816 H              1 RES1               0.0000
     44 H14         26.3533 -30.2879  44.5235 H              1 RES1               0.0000
     45 H15         22.9697 -32.9814  41.7640 H              1 RES1               0.0000
     46 H16         21.7798 -31.6592  40.0625 H              1 RES1               0.0000
     47 H17         20.2715 -32.5279  40.4269 H              1 RES1               0.0000
     48 H18         21.6479 -33.3975  39.7115 H              1 RES1               0.0000
     49 H19         23.2367 -34.9601  43.1333 H              1 RES1               0.0000
     50 H20         19.3407 -33.8436  41.6889 H              1 RES1               0.0000
     51 H21         18.4170 -35.9709  42.5512 H              1 RES1               0.0000
     52 H22         19.8864 -37.5904  43.7115 H              1 RES1               0.0000
     53 H23         21.2084 -38.7074  45.1814 H              1 RES1               0.0000
     54 H24         24.4310 -36.4463  44.5593 H              1 RES1               0.0000
     55 H25         24.3850 -37.4873  43.1182 H              1 RES1               0.0000
@<TRIPOS>BOND
    1    1    2 1     
    2    1    3 1     
    3    2    4 ar    
    4    2    5 ar    
    5    3    6 1     
    6    4    7 1     
    7    4    8 ar    
    8    5    9 ar    
    9    7   10 1     
   10    8   11 ar    
   11    9   12 ar    
   12   11   13 ar    
   13   12   14 ar    
   14   13   15 ar    
   15   13   16 1     
   16   14   17 1     
   17   16   18 1     
   18   18   19 1     
   19   18   20 1     
   20   19   21 ar    
   21   19   22 ar    
   22   21   23 ar    
   23   22   24 ar    
   24   23   25 1     
   25   23   26 ar    
   26   25   27 2     
   27   25   28 1     
   28   27   29 1     
   29   28   30 1     
   30    9   11 ar    
   31   14   15 ar    
   32   24   26 ar    
   33   29   30 2     
   34    3   31 1     
   35    3   32 1     
   36    5   33 1     
   37    6   34 1     
   38    6   35 1     
   39    6   36 1     
   40    8   37 1     
   41   10   38 1     
   42   10   39 1     
   43   10   40 1     
   44   16   41 1     
   45   17   42 1     
   46   17   43 1     
   47   17   44 1     
   48   18   45 1     
   49   20   46 1     
   50   20   47 1     
   51   20   48 1     
   52   21   49 1     
   53   22   50 1     
   54   24   51 1     
   55   26   52 1     
   56   27   53 1     
   57   28   54 1     
   58   28   55 1     
@<TRIPOS>SUBSTRUCTURE
      1 RES1           1
@<TRIPOS>SET
DONOR_HYDROGENS      STATIC     ATOMS    <user>   **** ""
1 41
ATOM$RED        STATIC     ATOMS    COLORGROUP SYSTEM
1 41
@<TRIPOS>COMMENT
> <Gold.Version>
2022.3.0

> <Gold.Id.Protein>
unknown|5ovf_clean|pdb

> <Gold.Protein.ActiveResidues>
 ILE839  VAL852  ILE856  LEU859  VAL871  LEU872  GLU873  VAL874  VAL875  SER876 
 ALA877  MET878  ASN879  SER880  SER881  PRO882  VAL883  TYR884  ARG885  LEU886 
 ASP887  HIS888  THR889  PHE890  GLU891  GLN892  ILE893  PRO894  SER895  ARG896 
 GLN897  LYS898  LYS899  ILE900  LEU901  GLU902  GLU903  ALA904  HIS905  GLU906 
 LEU907  SER908  GLU909  LYS914  GLU836  ILE839  VAL852  ILE855  ILE856  LEU859 
 GLN863  VAL871  LEU872  VAL874  VAL875  SER876  ALA877  MET878  ASN879  SER880 
 SER881  PRO882  VAL883  TYR884  ARG885  LEU886  ASP887  HIS888  THR889  PHE890 
 GLU891  GLN892  ILE893  PRO894  SER895  ARG896  GLN897  LYS898  LYS899  ILE900 
 LEU901  GLU902  GLU903  ALA904  HIS905  GLU906  LEU907  SER908  GLU909  ASP910 
 LYS914 

> <Gold.Score>
     Fitness  S(hb_ext) S(vdw_ext)  S(hb_int)    S(int)     S(con)      intcor
     77.71       0.71      59.76       0.00      -5.18      -0.00      -8.46

> <Gold.Goldscore.Fitness>
77.7071

> <Gold.Goldscore.Internal.Vdw>
-8.6027

> <Gold.Goldscore.Internal.Torsion>
-5.0369

> <Gold.Goldscore.External.Vdw>
59.7604

> <Gold.Goldscore.Internal.HBond>
0.0000

> <Gold.Goldscore.External.HBond>
0.7147

> <Gold.Goldscore.Internal.Correction>
-8.4614

> <Gold.Goldscore.Constraint.Score>
-0.0000

> <Gold.Goldscore.Reference.RMSD>
0.7896

> <Gold.Goldscore.Hbonds>
donor molecule, donor type, donor heavy atom, donor atom, acceptor molecule, acceptor atom, score
      L1  H    16    41       P1  2553  0.36

> <Gold.Goldscore.Internal.Vdw.Weighted>
-8.6027

> <Gold.Goldscore.Internal.Torsion.Weighted>
-5.0369

> <Gold.Goldscore.External.Vdw.Weighted>
82.1706

> <Gold.Goldscore.Internal.HBond.Weighted>
0.0000

> <Gold.Goldscore.External.HBond.Weighted>
0.7147

> <Gold.Goldscore.Internal.Correction.Weighted>
-8.4614

> <Gold.Rescore>
     Score         DG    S(hbond)    S(metal)    S(lipo)     H(rot)  DE(clash)    DE(int)    DE(con)     intcor
     32.74     -34.98       0.92        0.00     261.65       1.63       0.47       1.76       0.00       ----

> <Gold.Chemscore.Fitness>
32.7423

> <Gold.Chemscore.DG>
-34.9797

> <Gold.Chemscore.ZeroCoef>
-5.4800

> <Gold.Chemscore.Hbond>
0.9154

> <Gold.Chemscore.Metal>
0.0000

> <Gold.Chemscore.Lipo>
261.6548

> <Gold.Chemscore.Internal_Hbond>
0.0000

> <Gold.Chemscore.DEClash>
0.4730

> <Gold.Chemscore.DEInternal>
1.7644

> <Gold.Chemscore.Rot>
1.6294

> <Gold.Chemscore.Internal.Correction>
   9.000000E+99

> <Gold.Chemscore.Constraint>
0.0000

> <Gold.Chemscore.Reference.RMSD>
0.0000

> <Gold.Chemscore.Hbonds>
donor molecule, donor type, donor heavy atom, donor atom, acceptor molecule, acceptor atom, score
      L1  H    16    41       P1  2553  0.76

> <Gold.Chemscore.Hbond.Weighted>
-3.0574

> <Gold.Chemscore.Metal.Weighted>
-0.0000

> <Gold.Chemscore.Lipo.Weighted>
-30.6136

> <Gold.Chemscore.Internal_Hbond.Weighted>
0.0000

> <Gold.Chemscore.DEClash.Weighted>
0.4730

> <Gold.Chemscore.DEInternal.Weighted>
1.7644

> <Gold.Chemscore.Rot.Weighted>
4.1713

> <Gold.Chemscore.Internal.Correction.Weighted>
   9.000000E+99

> <Gold.Reference.RMSD>
0.7896

#       Name:                example_1
#       Creating user name   hitesit
#       Creation time:       Mon Nov  6 23:30:46 2023


#       File generated by GOLD software.
#

@<TRIPOS>MOLECULE
example_1|example_1_prep|mol2|1|dock6
    55    58     1
SMALL
NO_CHARGES


@<TRIPOS>ATOM
      1 O1          20.1244 -29.4686  48.5552 O.3            1 RES1               0.0000
      2 C2          20.6759 -29.9508  47.3945 C.ar           1 RES1               0.0000
      3 C3          20.8687 -29.6184  49.7611 C.3            1 RES1               0.0000
      4 C4          19.7733 -30.2770  46.3713 C.ar           1 RES1               0.0000
      5 C5          22.0476 -30.1231  47.1805 C.ar           1 RES1               0.0000
      6 C6          19.9282 -29.3649  50.9256 C.3            1 RES1               0.0000
      7 O7          18.4456 -30.0735  46.6456 O.3            1 RES1               0.0000
      8 C8          20.2679 -30.7778  45.1655 C.ar           1 RES1               0.0000
      9 C9          22.5513 -30.6166  45.9840 C.ar           1 RES1               0.0000
     10 C10         17.5116 -30.2712  45.5943 C.3            1 RES1               0.0000
     11 C11         21.6606 -30.9624  44.9624 C.ar           1 RES1               0.0000
     12 N12         23.8752 -30.7350  45.8607 N.ar           1 RES1               0.0000
     13 C13         22.2499 -31.4681  43.7880 C.ar           1 RES1               0.0000
     14 C14         24.3441 -31.2022  44.6956 C.ar           1 RES1               0.0000
     15 N15         23.5835 -31.5580  43.6512 N.ar           1 RES1               0.0000
     16 N16         21.4503 -31.8479  42.7130 N.pl3          1 RES1               0.0000
     17 C17         25.8285 -31.2916  44.5319 C.3            1 RES1               0.0000
     18 C18         21.8572 -32.9207  41.8161 C.3            1 RES1               0.0000
     19 C19         21.3382 -34.2430  42.3649 C.ar           1 RES1               0.0000
     20 C20         21.3430 -32.5905  40.4102 C.3            1 RES1               0.0000
     21 C21         22.1667 -35.1721  43.0235 C.ar           1 RES1               0.0000
     22 C22         19.9923 -34.5786  42.1630 C.ar           1 RES1               0.0000
     23 C23         21.6727 -36.3991  43.5013 C.ar           1 RES1               0.0000
     24 C24         19.4845 -35.7893  42.6257 C.ar           1 RES1               0.0000
     25 C25         22.5428 -37.3558  44.1890 C.2            1 RES1               0.0000
     26 C26         20.3177 -36.6895  43.2915 C.ar           1 RES1               0.0000
     27 C27         22.2400 -38.4053  44.9566 C.2            1 RES1               0.0000
     28 C28         24.0309 -37.3450  44.1547 C.3            1 RES1               0.0000
     29 N29         23.3405 -39.0687  45.4263 N.2            1 RES1               0.0000
     30 N30         24.3905 -38.5104  45.0048 N.2            1 RES1               0.0000
     31 H1          21.2716 -30.6282  49.8241 H              1 RES1               0.0000
     32 H2          21.6863 -28.8994  49.7828 H              1 RES1               0.0000
     33 H3          22.7425 -29.8620  47.9773 H              1 RES1               0.0000
     34 H4          20.4729 -29.4732  51.8623 H              1 RES1               0.0000
     35 H5          19.1111 -30.0843  50.8955 H              1 RES1               0.0000
     36 H6          19.5259 -28.3555  50.8542 H              1 RES1               0.0000
     37 H7          19.5728 -31.0313  44.3664 H              1 RES1               0.0000
     38 H8          16.5053 -30.0736  45.9608 H              1 RES1               0.0000
     39 H9          17.5741 -31.2997  45.2420 H              1 RES1               0.0000
     40 H10         17.7392 -29.5920  44.7741 H              1 RES1               0.0000
     41 H11         20.5698 -31.3694  42.5519 H              1 RES1               0.0000
     42 H12         26.0617 -31.6851  43.5436 H              1 RES1               0.0000
     43 H13         26.2383 -31.9546  45.2925 H              1 RES1               0.0000
     44 H14         26.2661 -30.3004  44.6404 H              1 RES1               0.0000
     45 H15         22.9452 -32.9581  41.7890 H              1 RES1               0.0000
     46 H16         21.7553 -31.6355  40.0878 H              1 RES1               0.0000
     47 H17         20.2558 -32.5295  40.4263 H              1 RES1               0.0000
     48 H18         21.6524 -33.3718  39.7177 H              1 RES1               0.0000
     49 H19         23.2196 -34.9337  43.1669 H              1 RES1               0.0000
     50 H20         19.3369 -33.8848  41.6385 H              1 RES1               0.0000
     51 H21         18.4352 -36.0344  42.4680 H              1 RES1               0.0000
     52 H22         19.9088 -37.6318  43.6534 H              1 RES1               0.0000
     53 H23         21.2181 -38.7037  45.1862 H              1 RES1               0.0000
     54 H24         24.4257 -36.4194  44.5711 H              1 RES1               0.0000
     55 H25         24.4004 -37.4725  43.1382 H              1 RES1               0.0000
@<TRIPOS>BOND
    1    1    2 1     
    2    1    3 1     
    3    2    4 ar    
    4    2    5 ar    
    5    3    6 1     
    6    4    7 1     
    7    4    8 ar    
    8    5    9 ar    
    9    7   10 1     
   10    8   11 ar    
   11    9   12 ar    
   12   11   13 ar    
   13   12   14 ar    
   14   13   15 ar    
   15   13   16 1     
   16   14   17 1     
   17   16   18 1     
   18   18   19 1     
   19   18   20 1     
   20   19   21 ar    
   21   19   22 ar    
   22   21   23 ar    
   23   22   24 ar    
   24   23   25 1     
   25   23   26 ar    
   26   25   27 2     
   27   25   28 1     
   28   27   29 1     
   29   28   30 1     
   30    9   11 ar    
   31   14   15 ar    
   32   24   26 ar    
   33   29   30 2     
   34    3   31 1     
   35    3   32 1     
   36    5   33 1     
   37    6   34 1     
   38    6   35 1     
   39    6   36 1     
   40    8   37 1     
   41   10   38 1     
   42   10   39 1     
   43   10   40 1     
   44   16   41 1     
   45   17   42 1     
   46   17   43 1     
   47   17   44 1     
   48   18   45 1     
   49   20   46 1     
   50   20   47 1     
   51   20   48 1     
   52   21   49 1     
   53   22   50 1     
   54   24   51 1     
   55   26   52 1     
   56   27   53 1     
   57   28   54 1     
   58   28   55 1     
@<TRIPOS>SUBSTRUCTURE
      1 RES1           1
@<TRIPOS>SET
DONOR_HYDROGENS      STATIC     ATOMS    <user>   **** ""
1 41
ATOM$RED        STATIC     ATOMS    COLORGROUP SYSTEM
1 41
@<TRIPOS>COMMENT
> <Gold.Version>
2022.3.0

> <Gold.Id.Protein>
unknown|5ovf_clean|pdb

> <Gold.Protein.ActiveResidues>
 ILE839  VAL852  ILE856  LEU859  VAL871  LEU872  GLU873  VAL874  VAL875  SER876 
 ALA877  MET878  ASN879  SER880  SER881  PRO882  VAL883  TYR884  ARG885  LEU886 
 ASP887  HIS888  THR889  PHE890  GLU891  GLN892  ILE893  PRO894  SER895  ARG896 
 GLN897  LYS898  LYS899  ILE900  LEU901  GLU902  GLU903  ALA904  HIS905  GLU906 
 LEU907  SER908  GLU909  LYS914  GLU836  ILE839  VAL852  ILE855  ILE856  LEU859 
 GLN863  VAL871  LEU872  VAL874  VAL875  SER876  ALA877  MET878  ASN879  SER880 
 SER881  PRO882  VAL883  TYR884  ARG885  LEU886  ASP887  HIS888  THR889  PHE890 
 GLU891  GLN892  ILE893  PRO894  SER895  ARG896  GLN897  LYS898  LYS899  ILE900 
 LEU901  GLU902  GLU903  ALA904  HIS905  GLU906  LEU907  SER908  GLU909  ASP910 
 LYS914 

> <Gold.Score>
     Fitness  S(hb_ext) S(vdw_ext)  S(hb_int)    S(int)     S(con)      intcor
     77.61       0.80      59.82       0.00      -5.44      -0.00      -8.46

> <Gold.Goldscore.Fitness>
77.6064

> <Gold.Goldscore.Internal.Vdw>
-9.0684

> <Gold.Goldscore.Internal.Torsion>
-4.8344

> <Gold.Goldscore.External.Vdw>
59.8172

> <Gold.Goldscore.Internal.HBond>
0.0000

> <Gold.Goldscore.External.HBond>
0.7991

> <Gold.Goldscore.Internal.Correction>
-8.4614

> <Gold.Goldscore.Constraint.Score>
-0.0000

> <Gold.Goldscore.Reference.RMSD>
0.7891

> <Gold.Goldscore.Hbonds>
donor molecule, donor type, donor heavy atom, donor atom, acceptor molecule, acceptor atom, score
      L1  H    16    41       P1  2553  0.40

> <Gold.Goldscore.Internal.Vdw.Weighted>
-9.0684

> <Gold.Goldscore.Internal.Torsion.Weighted>
-4.8344

> <Gold.Goldscore.External.Vdw.Weighted>
82.2487

> <Gold.Goldscore.Internal.HBond.Weighted>
0.0000

> <Gold.Goldscore.External.HBond.Weighted>
0.7991

> <Gold.Goldscore.Internal.Correction.Weighted>
-8.4614

> <Gold.Rescore>
     Score         DG    S(hbond)    S(metal)    S(lipo)     H(rot)  DE(clash)    DE(int)    DE(con)     intcor
     33.01     -35.19       0.89        0.00     264.19       1.63       0.59       1.58       0.00       ----

> <Gold.Chemscore.Fitness>
33.0124

> <Gold.Chemscore.DG>
-35.1877

> <Gold.Chemscore.ZeroCoef>
-5.4800

> <Gold.Chemscore.Hbond>
0.8887

> <Gold.Chemscore.Metal>
0.0000

> <Gold.Chemscore.Lipo>
264.1940

> <Gold.Chemscore.Internal_Hbond>
0.0000

> <Gold.Chemscore.DEClash>
0.5912

> <Gold.Chemscore.DEInternal>
1.5841

> <Gold.Chemscore.Rot>
1.6294

> <Gold.Chemscore.Internal.Correction>
   9.000000E+99

> <Gold.Chemscore.Constraint>
0.0000

> <Gold.Chemscore.Reference.RMSD>
0.0000

> <Gold.Chemscore.Hbonds>
donor molecule, donor type, donor heavy atom, donor atom, acceptor molecule, acceptor atom, score
      L1  H    16    41       P1  2553  0.80

> <Gold.Chemscore.Hbond.Weighted>
-2.9683

> <Gold.Chemscore.Metal.Weighted>
-0.0000

> <Gold.Chemscore.Lipo.Weighted>
-30.9107

> <Gold.Chemscore.Internal_Hbond.Weighted>
0.0000

> <Gold.Chemscore.DEClash.Weighted>
0.5912

> <Gold.Chemscore.DEInternal.Weighted>
1.5841

> <Gold.Chemscore.Rot.Weighted>
4.1713

> <Gold.Chemscore.Internal.Correction.Weighted>
   9.000000E+99

> <Gold.Reference.RMSD>
0.7891

#       Name:                example_1
#       Creating user name   hitesit
#       Creation time:       Mon Nov  6 23:30:39 2023


#       File generated by GOLD software.
#

@<TRIPOS>MOLECULE
example_1|example_1_prep|mol2|1|dock5
    55    58     1
SMALL
NO_CHARGES


@<TRIPOS>ATOM
      1 O1          20.1396 -29.4907  48.5720 O.3            1 RES1               0.0000
      2 C2          20.6937 -29.9719  47.4122 C.ar           1 RES1               0.0000
      3 C3          20.8619 -29.6796  49.7859 C.3            1 RES1               0.0000
      4 C4          19.7935 -30.2952  46.3859 C.ar           1 RES1               0.0000
      5 C5          22.0657 -30.1457  47.2016 C.ar           1 RES1               0.0000
      6 C6          19.9085 -29.4303  50.9408 C.3            1 RES1               0.0000
      7 O7          18.4652 -30.0903  46.6569 O.3            1 RES1               0.0000
      8 C8          20.2907 -30.7948  45.1807 C.ar           1 RES1               0.0000
      9 C9          22.5720 -30.6380  46.0057 C.ar           1 RES1               0.0000
     10 C10         17.5350 -30.2742  45.5998 C.3            1 RES1               0.0000
     11 C11         21.6837 -30.9809  44.9811 C.ar           1 RES1               0.0000
     12 N12         23.8961 -30.7581  45.8858 N.ar           1 RES1               0.0000
     13 C13         22.2755 -31.4856  43.8075 C.ar           1 RES1               0.0000
     14 C14         24.3676 -31.2240  44.7213 C.ar           1 RES1               0.0000
     15 N15         23.6094 -31.5771  43.6743 N.ar           1 RES1               0.0000
     16 N16         21.4784 -31.8627  42.7298 N.pl3          1 RES1               0.0000
     17 C17         25.8523 -31.3152  44.5616 C.3            1 RES1               0.0000
     18 C18         21.8906 -32.9284  41.8269 C.3            1 RES1               0.0000
     19 C19         21.3764 -34.2560  42.3670 C.ar           1 RES1               0.0000
     20 C20         21.3766 -32.5917  40.4224 C.3            1 RES1               0.0000
     21 C21         22.2082 -35.1864  43.0198 C.ar           1 RES1               0.0000
     22 C22         20.0318 -34.5953  42.1628 C.ar           1 RES1               0.0000
     23 C23         21.7187 -36.4182  43.4896 C.ar           1 RES1               0.0000
     24 C24         19.5283 -35.8108  42.6176 C.ar           1 RES1               0.0000
     25 C25         22.5922 -37.3761  44.1712 C.2            1 RES1               0.0000
     26 C26         20.3647 -36.7122  43.2777 C.ar           1 RES1               0.0000
     27 C27         22.2932 -38.4390  44.9217 C.2            1 RES1               0.0000
     28 C28         24.0803 -37.3507  44.1495 C.3            1 RES1               0.0000
     29 N29         23.3960 -39.0984  45.3914 N.2            1 RES1               0.0000
     30 N30         24.4441 -38.5244  44.9864 N.2            1 RES1               0.0000
     31 H1          21.2435 -30.6984  49.8345 H              1 RES1               0.0000
     32 H2          21.6932 -28.9779  49.8346 H              1 RES1               0.0000
     33 H3          22.7587 -29.8868  48.0007 H              1 RES1               0.0000
     34 H4          20.4362 -29.5682  51.8833 H              1 RES1               0.0000
     35 H5          19.0778 -30.1322  50.8837 H              1 RES1               0.0000
     36 H6          19.5277 -28.4116  50.8837 H              1 RES1               0.0000
     37 H7          19.5974 -31.0461  44.3793 H              1 RES1               0.0000
     38 H8          16.5278 -30.0771  45.9642 H              1 RES1               0.0000
     39 H9          17.5957 -31.2991  45.2371 H              1 RES1               0.0000
     40 H10         17.7681 -29.5873  44.7876 H              1 RES1               0.0000
     41 H11         20.5958 -31.3872  42.5709 H              1 RES1               0.0000
     42 H12         26.0877 -31.7075  43.5733 H              1 RES1               0.0000
     43 H13         26.2590 -31.9799  45.3223 H              1 RES1               0.0000
     44 H14         26.2909 -30.3248  44.6728 H              1 RES1               0.0000
     45 H15         22.9788 -32.9612  41.8008 H              1 RES1               0.0000
     46 H16         21.7854 -31.6331  40.1063 H              1 RES1               0.0000
     47 H17         20.2892 -32.5353  40.4377 H              1 RES1               0.0000
     48 H18         21.6900 -33.3675  39.7255 H              1 RES1               0.0000
     49 H19         23.2602 -34.9450  43.1649 H              1 RES1               0.0000
     50 H20         19.3739 -33.9005  41.6427 H              1 RES1               0.0000
     51 H21         18.4800 -36.0588  42.4581 H              1 RES1               0.0000
     52 H22         19.9593 -37.6583  43.6334 H              1 RES1               0.0000
     53 H23         21.2723 -38.7503  45.1385 H              1 RES1               0.0000
     54 H24         24.4628 -36.4273  44.5821 H              1 RES1               0.0000
     55 H25         24.4594 -37.4605  43.1346 H              1 RES1               0.0000
@<TRIPOS>BOND
    1    1    2 1     
    2    1    3 1     
    3    2    4 ar    
    4    2    5 ar    
    5    3    6 1     
    6    4    7 1     
    7    4    8 ar    
    8    5    9 ar    
    9    7   10 1     
   10    8   11 ar    
   11    9   12 ar    
   12   11   13 ar    
   13   12   14 ar    
   14   13   15 ar    
   15   13   16 1     
   16   14   17 1     
   17   16   18 1     
   18   18   19 1     
   19   18   20 1     
   20   19   21 ar    
   21   19   22 ar    
   22   21   23 ar    
   23   22   24 ar    
   24   23   25 1     
   25   23   26 ar    
   26   25   27 2     
   27   25   28 1     
   28   27   29 1     
   29   28   30 1     
   30    9   11 ar    
   31   14   15 ar    
   32   24   26 ar    
   33   29   30 2     
   34    3   31 1     
   35    3   32 1     
   36    5   33 1     
   37    6   34 1     
   38    6   35 1     
   39    6   36 1     
   40    8   37 1     
   41   10   38 1     
   42   10   39 1     
   43   10   40 1     
   44   16   41 1     
   45   17   42 1     
   46   17   43 1     
   47   17   44 1     
   48   18   45 1     
   49   20   46 1     
   50   20   47 1     
   51   20   48 1     
   52   21   49 1     
   53   22   50 1     
   54   24   51 1     
   55   26   52 1     
   56   27   53 1     
   57   28   54 1     
   58   28   55 1     
@<TRIPOS>SUBSTRUCTURE
      1 RES1           1
@<TRIPOS>SET
DONOR_HYDROGENS      STATIC     ATOMS    <user>   **** ""
1 41
ATOM$RED        STATIC     ATOMS    COLORGROUP SYSTEM
1 41
@<TRIPOS>COMMENT
> <Gold.Version>
2022.3.0

> <Gold.Id.Protein>
unknown|5ovf_clean|pdb

> <Gold.Protein.ActiveResidues>
 ILE839  VAL852  ILE856  LEU859  VAL871  LEU872  GLU873  VAL874  VAL875  SER876 
 ALA877  MET878  ASN879  SER880  SER881  PRO882  VAL883  TYR884  ARG885  LEU886 
 ASP887  HIS888  THR889  PHE890  GLU891  GLN892  ILE893  PRO894  SER895  ARG896 
 GLN897  LYS898  LYS899  ILE900  LEU901  GLU902  GLU903  ALA904  HIS905  GLU906 
 LEU907  SER908  GLU909  LYS914  GLU836  ILE839  VAL852  ILE855  ILE856  LEU859 
 GLN863  VAL871  LEU872  VAL874  VAL875  SER876  ALA877  MET878  ASN879  SER880 
 SER881  PRO882  VAL883  TYR884  ARG885  LEU886  ASP887  HIS888  THR889  PHE890 
 GLU891  GLN892  ILE893  PRO894  SER895  ARG896  GLN897  LYS898  LYS899  ILE900 
 LEU901  GLU902  GLU903  ALA904  HIS905  GLU906  LEU907  SER908  GLU909  ASP910 
 LYS914 

> <Gold.Score>
     Fitness  S(hb_ext) S(vdw_ext)  S(hb_int)    S(int)     S(con)      intcor
     77.59       0.84      59.79       0.00      -5.46      -0.00      -8.46

> <Gold.Goldscore.Fitness>
77.5916

> <Gold.Goldscore.Internal.Vdw>
-9.0726

> <Gold.Goldscore.Internal.Torsion>
-4.8532

> <Gold.Goldscore.External.Vdw>
59.7909

> <Gold.Goldscore.Internal.HBond>
0.0000

> <Gold.Goldscore.External.HBond>
0.8435

> <Gold.Goldscore.Internal.Correction>
-8.4614

> <Gold.Goldscore.Constraint.Score>
-0.0000

> <Gold.Goldscore.Reference.RMSD>
0.8194

> <Gold.Goldscore.Hbonds>
donor molecule, donor type, donor heavy atom, donor atom, acceptor molecule, acceptor atom, score
      L1  H    16    41       P1  2553  0.42

> <Gold.Goldscore.Internal.Vdw.Weighted>
-9.0726

> <Gold.Goldscore.Internal.Torsion.Weighted>
-4.8532

> <Gold.Goldscore.External.Vdw.Weighted>
82.2125

> <Gold.Goldscore.Internal.HBond.Weighted>
0.0000

> <Gold.Goldscore.External.HBond.Weighted>
0.8435

> <Gold.Goldscore.Internal.Correction.Weighted>
-8.4614

> <Gold.Rescore>
     Score         DG    S(hbond)    S(metal)    S(lipo)     H(rot)  DE(clash)    DE(int)    DE(con)     intcor
     32.98     -34.97       0.89        0.00     262.17       1.63       0.32       1.68       0.00       ----

> <Gold.Chemscore.Fitness>
32.9764

> <Gold.Chemscore.DG>
-34.9710

> <Gold.Chemscore.ZeroCoef>
-5.4800

> <Gold.Chemscore.Hbond>
0.8948

> <Gold.Chemscore.Metal>
0.0000

> <Gold.Chemscore.Lipo>
262.1684

> <Gold.Chemscore.Internal_Hbond>
0.0000

> <Gold.Chemscore.DEClash>
0.3179

> <Gold.Chemscore.DEInternal>
1.6766

> <Gold.Chemscore.Rot>
1.6294

> <Gold.Chemscore.Internal.Correction>
   9.000000E+99

> <Gold.Chemscore.Constraint>
0.0000

> <Gold.Chemscore.Reference.RMSD>
0.0000

> <Gold.Chemscore.Hbonds>
donor molecule, donor type, donor heavy atom, donor atom, acceptor molecule, acceptor atom, score
      L1  H    16    41       P1  2553  0.81

> <Gold.Chemscore.Hbond.Weighted>
-2.9886

> <Gold.Chemscore.Metal.Weighted>
-0.0000

> <Gold.Chemscore.Lipo.Weighted>
-30.6737

> <Gold.Chemscore.Internal_Hbond.Weighted>
0.0000

> <Gold.Chemscore.DEClash.Weighted>
0.3179

> <Gold.Chemscore.DEInternal.Weighted>
1.6766

> <Gold.Chemscore.Rot.Weighted>
4.1713

> <Gold.Chemscore.Internal.Correction.Weighted>
   9.000000E+99

> <Gold.Reference.RMSD>
0.8194

#       Name:                example_1
#       Creating user name   hitesit
#       Creation time:       Mon Nov  6 23:30:51 2023


#       File generated by GOLD software.
#

@<TRIPOS>MOLECULE
example_1|example_1_prep|mol2|1|dock7
    55    58     1
SMALL
NO_CHARGES


@<TRIPOS>ATOM
      1 O1          20.1740 -29.4679  48.5803 O.3            1 RES1               0.0000
      2 C2          20.7111 -29.9589  47.4166 C.ar           1 RES1               0.0000
      3 C3          20.9159 -29.6427  49.7844 C.3            1 RES1               0.0000
      4 C4          19.7950 -30.3088  46.4134 C.ar           1 RES1               0.0000
      5 C5          22.0809 -30.1181  47.1811 C.ar           1 RES1               0.0000
      6 C6          19.9766 -29.3986  50.9519 C.3            1 RES1               0.0000
      7 O7          18.4698 -30.1170  46.7080 O.3            1 RES1               0.0000
      8 C8          20.2746 -30.8195  45.2057 C.ar           1 RES1               0.0000
      9 C9          22.5697 -30.6213  45.9824 C.ar           1 RES1               0.0000
     10 C10         17.5234 -30.3024  45.6657 C.3            1 RES1               0.0000
     11 C11         21.6657 -30.9907  44.9809 C.ar           1 RES1               0.0000
     12 N12         23.8926 -30.7261  45.8377 N.ar           1 RES1               0.0000
     13 C13         22.2407 -31.5048  43.8031 C.ar           1 RES1               0.0000
     14 C14         24.3469 -31.2030  44.6707 C.ar           1 RES1               0.0000
     15 N15         23.5727 -31.5811  43.6444 N.ar           1 RES1               0.0000
     16 N16         21.4273 -31.9079  42.7471 N.pl3          1 RES1               0.0000
     17 C17         25.8292 -31.2774  44.4826 C.3            1 RES1               0.0000
     18 C18         21.8482 -32.9615  41.8341 C.3            1 RES1               0.0000
     19 C19         21.3556 -34.2998  42.3681 C.ar           1 RES1               0.0000
     20 C20         21.3208 -32.6222  40.4353 C.3            1 RES1               0.0000
     21 C21         22.1999 -35.2143  43.0273 C.ar           1 RES1               0.0000
     22 C22         20.0200 -34.6654  42.1513 C.ar           1 RES1               0.0000
     23 C23         21.7307 -36.4562  43.4913 C.ar           1 RES1               0.0000
     24 C24         19.5367 -35.8913  42.6002 C.ar           1 RES1               0.0000
     25 C25         22.6169 -37.3975  44.1798 C.2            1 RES1               0.0000
     26 C26         20.3848 -36.7768  43.2668 C.ar           1 RES1               0.0000
     27 C27         22.3319 -38.4512  44.9483 C.2            1 RES1               0.0000
     28 C28         24.1045 -37.3615  44.1454 C.3            1 RES1               0.0000
     29 N29         23.4435 -39.0956  45.4186 N.2            1 RES1               0.0000
     30 N30         24.4839 -38.5199  44.9965 N.2            1 RES1               0.0000
     31 H1          21.3096 -30.6569  49.8322 H              1 RES1               0.0000
     32 H2          21.7398 -28.9315  49.8176 H              1 RES1               0.0000
     33 H3          22.7862 -29.8386  47.9622 H              1 RES1               0.0000
     34 H4          20.5195 -29.5260  51.8872 H              1 RES1               0.0000
     35 H5          19.1532 -30.1101  50.9102 H              1 RES1               0.0000
     36 H6          19.5835 -28.3845  50.8956 H              1 RES1               0.0000
     37 H7          19.5689 -31.0915  44.4222 H              1 RES1               0.0000
     38 H8          16.5210 -30.1163  46.0482 H              1 RES1               0.0000
     39 H9          17.5868 -31.3246  45.2955 H              1 RES1               0.0000
     40 H10         17.7369 -29.6086  44.8539 H              1 RES1               0.0000
     41 H11         20.5265 -31.4602  42.6115 H              1 RES1               0.0000
     42 H12         26.0500 -31.6811  43.4955 H              1 RES1               0.0000
     43 H13         26.2597 -31.9256  45.2444 H              1 RES1               0.0000
     44 H14         26.2569 -30.2799  44.5707 H              1 RES1               0.0000
     45 H15         22.9366 -32.9792  41.8010 H              1 RES1               0.0000
     46 H16         21.7144 -31.6559  40.1234 H              1 RES1               0.0000
     47 H17         20.2328 -32.5807  40.4578 H              1 RES1               0.0000
     48 H18         21.6403 -33.3887  39.7310 H              1 RES1               0.0000
     49 H19         23.2455 -34.9523  43.1822 H              1 RES1               0.0000
     50 H20         19.3531 -33.9832  41.6260 H              1 RES1               0.0000
     51 H21         18.4950 -36.1599  42.4309 H              1 RES1               0.0000
     52 H22         19.9951 -37.7312  43.6178 H              1 RES1               0.0000
     53 H23         21.3152 -38.7667  45.1782 H              1 RES1               0.0000
     54 H24         24.4837 -36.4290  44.5610 H              1 RES1               0.0000
     55 H25         24.4761 -37.4836  43.1290 H              1 RES1               0.0000
@<TRIPOS>BOND
    1    1    2 1     
    2    1    3 1     
    3    2    4 ar    
    4    2    5 ar    
    5    3    6 1     
    6    4    7 1     
    7    4    8 ar    
    8    5    9 ar    
    9    7   10 1     
   10    8   11 ar    
   11    9   12 ar    
   12   11   13 ar    
   13   12   14 ar    
   14   13   15 ar    
   15   13   16 1     
   16   14   17 1     
   17   16   18 1     
   18   18   19 1     
   19   18   20 1     
   20   19   21 ar    
   21   19   22 ar    
   22   21   23 ar    
   23   22   24 ar    
   24   23   25 1     
   25   23   26 ar    
   26   25   27 2     
   27   25   28 1     
   28   27   29 1     
   29   28   30 1     
   30    9   11 ar    
   31   14   15 ar    
   32   24   26 ar    
   33   29   30 2     
   34    3   31 1     
   35    3   32 1     
   36    5   33 1     
   37    6   34 1     
   38    6   35 1     
   39    6   36 1     
   40    8   37 1     
   41   10   38 1     
   42   10   39 1     
   43   10   40 1     
   44   16   41 1     
   45   17   42 1     
   46   17   43 1     
   47   17   44 1     
   48   18   45 1     
   49   20   46 1     
   50   20   47 1     
   51   20   48 1     
   52   21   49 1     
   53   22   50 1     
   54   24   51 1     
   55   26   52 1     
   56   27   53 1     
   57   28   54 1     
   58   28   55 1     
@<TRIPOS>SUBSTRUCTURE
      1 RES1           1
@<TRIPOS>SET
DONOR_HYDROGENS      STATIC     ATOMS    <user>   **** ""
1 41
ATOM$RED        STATIC     ATOMS    COLORGROUP SYSTEM
1 41
@<TRIPOS>COMMENT
> <Gold.Version>
2022.3.0

> <Gold.Id.Protein>
unknown|5ovf_clean|pdb

> <Gold.Protein.ActiveResidues>
 ILE839  VAL852  ILE856  LEU859  VAL871  LEU872  GLU873  VAL874  VAL875  SER876 
 ALA877  MET878  ASN879  SER880  SER881  PRO882  VAL883  TYR884  ARG885  LEU886 
 ASP887  HIS888  THR889  PHE890  GLU891  GLN892  ILE893  PRO894  SER895  ARG896 
 GLN897  LYS898  LYS899  ILE900  LEU901  GLU902  GLU903  ALA904  HIS905  GLU906 
 LEU907  SER908  GLU909  LYS914  GLU836  ILE839  VAL852  ILE855  ILE856  LEU859 
 GLN863  VAL871  LEU872  VAL874  VAL875  SER876  ALA877  MET878  ASN879  SER880 
 SER881  PRO882  VAL883  TYR884  ARG885  LEU886  ASP887  HIS888  THR889  PHE890 
 GLU891  GLN892  ILE893  PRO894  SER895  ARG896  GLN897  LYS898  LYS899  ILE900 
 LEU901  GLU902  GLU903  ALA904  HIS905  GLU906  LEU907  SER908  GLU909  ASP910 
 LYS914 

> <Gold.Score>
     Fitness  S(hb_ext) S(vdw_ext)  S(hb_int)    S(int)     S(con)      intcor
     77.11       1.15      59.64       0.00      -6.03      -0.00      -8.46

> <Gold.Goldscore.Fitness>
77.1118

> <Gold.Goldscore.Internal.Vdw>
-9.6046

> <Gold.Goldscore.Internal.Torsion>
-4.8900

> <Gold.Goldscore.External.Vdw>
59.6353

> <Gold.Goldscore.Internal.HBond>
0.0000

> <Gold.Goldscore.External.HBond>
1.1465

> <Gold.Goldscore.Internal.Correction>
-8.4614

> <Gold.Goldscore.Constraint.Score>
-0.0000

> <Gold.Goldscore.Reference.RMSD>
0.8102

> <Gold.Goldscore.Hbonds>
donor molecule, donor type, donor heavy atom, donor atom, acceptor molecule, acceptor atom, score
      L1  H    16    41       P1  2553  0.57

> <Gold.Goldscore.Internal.Vdw.Weighted>
-9.6046

> <Gold.Goldscore.Internal.Torsion.Weighted>
-4.8900

> <Gold.Goldscore.External.Vdw.Weighted>
81.9985

> <Gold.Goldscore.Internal.HBond.Weighted>
0.0000

> <Gold.Goldscore.External.HBond.Weighted>
1.1465

> <Gold.Goldscore.Internal.Correction.Weighted>
-8.4614

> <Gold.Rescore>
     Score         DG    S(hbond)    S(metal)    S(lipo)     H(rot)  DE(clash)    DE(int)    DE(con)     intcor
     32.85     -35.32       0.98        0.00     262.87       1.63       1.04       1.44       0.00       ----

> <Gold.Chemscore.Fitness>
32.8483

> <Gold.Chemscore.DG>
-35.3248

> <Gold.Chemscore.ZeroCoef>
-5.4800

> <Gold.Chemscore.Hbond>
0.9762

> <Gold.Chemscore.Metal>
0.0000

> <Gold.Chemscore.Lipo>
262.8682

> <Gold.Chemscore.Internal_Hbond>
0.0000

> <Gold.Chemscore.DEClash>
1.0397

> <Gold.Chemscore.DEInternal>
1.4368

> <Gold.Chemscore.Rot>
1.6294

> <Gold.Chemscore.Internal.Correction>
   9.000000E+99

> <Gold.Chemscore.Constraint>
0.0000

> <Gold.Chemscore.Reference.RMSD>
0.0000

> <Gold.Chemscore.Hbonds>
donor molecule, donor type, donor heavy atom, donor atom, acceptor molecule, acceptor atom, score
      L1  H    16    41       P1  2553  0.91

> <Gold.Chemscore.Hbond.Weighted>
-3.2605

> <Gold.Chemscore.Metal.Weighted>
-0.0000

> <Gold.Chemscore.Lipo.Weighted>
-30.7556

> <Gold.Chemscore.Internal_Hbond.Weighted>
0.0000

> <Gold.Chemscore.DEClash.Weighted>
1.0397

> <Gold.Chemscore.DEInternal.Weighted>
1.4368

> <Gold.Chemscore.Rot.Weighted>
4.1713

> <Gold.Chemscore.Internal.Correction.Weighted>
   9.000000E+99

> <Gold.Reference.RMSD>
0.8102

#       Name:                example_1
#       Creating user name   hitesit
#       Creation time:       Mon Nov  6 23:30:20 2023


#       File generated by GOLD software.
#

@<TRIPOS>MOLECULE
example_1|example_1_prep|mol2|1|dock2
    55    58     1
SMALL
NO_CHARGES


@<TRIPOS>ATOM
      1 O1          20.1801 -29.5064  48.6269 O.3            1 RES1               0.0000
      2 C2          20.7175 -29.9769  47.4549 C.ar           1 RES1               0.0000
      3 C3          20.9118 -29.7207  49.8308 C.3            1 RES1               0.0000
      4 C4          19.8052 -30.2612  46.4278 C.ar           1 RES1               0.0000
      5 C5          22.0844 -30.1758  47.2332 C.ar           1 RES1               0.0000
      6 C6          19.9798 -29.4520  50.9986 C.3            1 RES1               0.0000
      7 O7          18.4831 -30.0332  46.7103 O.3            1 RES1               0.0000
      8 C8          20.2851 -30.7479  45.2104 C.ar           1 RES1               0.0000
      9 C9          22.5736 -30.6557  46.0252 C.ar           1 RES1               0.0000
     10 C10         17.5425 -30.1851  45.6573 C.3            1 RES1               0.0000
     11 C11         21.6727 -30.9599  44.9993 C.ar           1 RES1               0.0000
     12 N12         23.8942 -30.8016  45.8954 N.ar           1 RES1               0.0000
     13 C13         22.2473 -31.4543  43.8130 C.ar           1 RES1               0.0000
     14 C14         24.3494 -31.2550  44.7195 C.ar           1 RES1               0.0000
     15 N15         23.5782 -31.5717  43.6703 N.ar           1 RES1               0.0000
     16 N16         21.4366 -31.7936  42.7327 N.pl3          1 RES1               0.0000
     17 C17         25.8310 -31.3748  44.5495 C.3            1 RES1               0.0000
     18 C18         21.8349 -32.8302  41.7907 C.3            1 RES1               0.0000
     19 C19         21.8401 -34.1722  42.5103 C.ar           1 RES1               0.0000
     20 C20         20.8840 -32.7767  40.5894 C.3            1 RES1               0.0000
     21 C21         20.7092 -34.6843  43.1754 C.ar           1 RES1               0.0000
     22 C22         23.0315 -34.9088  42.5614 C.ar           1 RES1               0.0000
     23 C23         20.7419 -35.9149  43.8554 C.ar           1 RES1               0.0000
     24 C24         23.0855 -36.1277  43.2315 C.ar           1 RES1               0.0000
     25 C25         19.5581 -36.4398  44.5398 C.2            1 RES1               0.0000
     26 C26         21.9492 -36.6267  43.8701 C.ar           1 RES1               0.0000
     27 C27         18.2650 -36.3601  44.2176 C.2            1 RES1               0.0000
     28 C28         19.5720 -37.2217  45.8063 C.3            1 RES1               0.0000
     29 N29         17.4431 -36.9844  45.1157 N.2            1 RES1               0.0000
     30 N30         18.1297 -37.4927  46.0443 N.2            1 RES1               0.0000
     31 H1          21.2665 -30.7497  49.8698 H              1 RES1               0.0000
     32 H2          21.7622 -29.0418  49.8725 H              1 RES1               0.0000
     33 H3          22.7870 -29.9471  48.0331 H              1 RES1               0.0000
     34 H4          20.5151 -29.6088  51.9339 H              1 RES1               0.0000
     35 H5          19.1299 -30.1311  50.9485 H              1 RES1               0.0000
     36 H6          19.6257 -28.4232  50.9511 H              1 RES1               0.0000
     37 H7          19.5823 -30.9690  44.4084 H              1 RES1               0.0000
     38 H8          16.5419 -29.9726  46.0308 H              1 RES1               0.0000
     39 H9          17.5803 -31.2064  45.2813 H              1 RES1               0.0000
     40 H10         17.7840 -29.4927  44.8522 H              1 RES1               0.0000
     41 H11         20.5538 -31.3105  42.5998 H              1 RES1               0.0000
     42 H12         26.0526 -31.7528  43.5526 H              1 RES1               0.0000
     43 H13         26.2274 -32.0625  45.2950 H              1 RES1               0.0000
     44 H14         26.2912 -30.3962  44.6772 H              1 RES1               0.0000
     45 H15         22.8451 -32.6168  41.4447 H              1 RES1               0.0000
     46 H16         20.9355 -31.7910  40.1292 H              1 RES1               0.0000
     47 H17         19.8654 -32.9682  40.9239 H              1 RES1               0.0000
     48 H18         21.1753 -33.5327  39.8618 H              1 RES1               0.0000
     49 H19         19.7832 -34.1112  43.1628 H              1 RES1               0.0000
     50 H20         23.9245 -34.5234  42.0715 H              1 RES1               0.0000
     51 H21         24.0159 -36.6929  43.2577 H              1 RES1               0.0000
     52 H22         22.0013 -37.5836  44.3875 H              1 RES1               0.0000
     53 H23         17.9004 -35.8487  43.3279 H              1 RES1               0.0000
     54 H24         20.0012 -36.6404  46.6211 H              1 RES1               0.0000
     55 H25         20.1306 -38.1490  45.6882 H              1 RES1               0.0000
@<TRIPOS>BOND
    1    1    2 1     
    2    1    3 1     
    3    2    4 ar    
    4    2    5 ar    
    5    3    6 1     
    6    4    7 1     
    7    4    8 ar    
    8    5    9 ar    
    9    7   10 1     
   10    8   11 ar    
   11    9   12 ar    
   12   11   13 ar    
   13   12   14 ar    
   14   13   15 ar    
   15   13   16 1     
   16   14   17 1     
   17   16   18 1     
   18   18   19 1     
   19   18   20 1     
   20   19   21 ar    
   21   19   22 ar    
   22   21   23 ar    
   23   22   24 ar    
   24   23   25 1     
   25   23   26 ar    
   26   25   27 2     
   27   25   28 1     
   28   27   29 1     
   29   28   30 1     
   30    9   11 ar    
   31   14   15 ar    
   32   24   26 ar    
   33   29   30 2     
   34    3   31 1     
   35    3   32 1     
   36    5   33 1     
   37    6   34 1     
   38    6   35 1     
   39    6   36 1     
   40    8   37 1     
   41   10   38 1     
   42   10   39 1     
   43   10   40 1     
   44   16   41 1     
   45   17   42 1     
   46   17   43 1     
   47   17   44 1     
   48   18   45 1     
   49   20   46 1     
   50   20   47 1     
   51   20   48 1     
   52   21   49 1     
   53   22   50 1     
   54   24   51 1     
   55   26   52 1     
   56   27   53 1     
   57   28   54 1     
   58   28   55 1     
@<TRIPOS>SUBSTRUCTURE
      1 RES1           1
@<TRIPOS>SET
DONOR_HYDROGENS      STATIC     ATOMS    <user>   **** ""
1 41
ATOM$RED        STATIC     ATOMS    COLORGROUP SYSTEM
1 41
@<TRIPOS>COMMENT
> <Gold.Version>
2022.3.0

> <Gold.Id.Protein>
unknown|5ovf_clean|pdb

> <Gold.Protein.ActiveResidues>
 ILE839  VAL852  ILE856  LEU859  VAL871  LEU872  GLU873  VAL874  VAL875  SER876 
 ALA877  MET878  ASN879  SER880  SER881  PRO882  VAL883  TYR884  ARG885  LEU886 
 ASP887  HIS888  THR889  PHE890  GLU891  GLN892  ILE893  PRO894  SER895  ARG896 
 GLN897  LYS898  LYS899  ILE900  LEU901  GLU902  GLU903  ALA904  HIS905  GLU906 
 LEU907  SER908  GLU909  LYS914  GLU836  ILE839  VAL852  ILE855  ILE856  LEU859 
 GLN863  VAL871  LEU872  VAL874  VAL875  SER876  ALA877  MET878  ASN879  SER880 
 SER881  PRO882  VAL883  TYR884  ARG885  LEU886  ASP887  HIS888  THR889  PHE890 
 GLU891  GLN892  ILE893  PRO894  SER895  ARG896  GLN897  LYS898  LYS899  ILE900 
 LEU901  GLU902  GLU903  ALA904  HIS905  GLU906  LEU907  SER908  GLU909  ASP910 
 LYS914 

> <Gold.Score>
     Fitness  S(hb_ext) S(vdw_ext)  S(hb_int)    S(int)     S(con)      intcor
     76.99       0.75      56.94       0.00      -2.05      -0.00      -8.92

> <Gold.Goldscore.Fitness>
76.9944

> <Gold.Goldscore.Internal.Vdw>
-4.7277

> <Gold.Goldscore.Internal.Torsion>
-6.2453

> <Gold.Goldscore.External.Vdw>
56.9380

> <Gold.Goldscore.Internal.HBond>
0.0000

> <Gold.Goldscore.External.HBond>
0.7527

> <Gold.Goldscore.Internal.Correction>
-8.9249

> <Gold.Goldscore.Constraint.Score>
-0.0000

> <Gold.Goldscore.Reference.RMSD>
2.3293

> <Gold.Goldscore.Hbonds>
donor molecule, donor type, donor heavy atom, donor atom, acceptor molecule, acceptor atom, score
      L1  H    16    41       P1  2553  0.38

> <Gold.Goldscore.Internal.Vdw.Weighted>
-4.7277

> <Gold.Goldscore.Internal.Torsion.Weighted>
-6.2453

> <Gold.Goldscore.External.Vdw.Weighted>
78.2898

> <Gold.Goldscore.Internal.HBond.Weighted>
0.0000

> <Gold.Goldscore.External.HBond.Weighted>
0.7527

> <Gold.Goldscore.Internal.Correction.Weighted>
-8.9249

> <Gold.Rescore>
     Score         DG    S(hbond)    S(metal)    S(lipo)     H(rot)  DE(clash)    DE(int)    DE(con)     intcor
     26.31     -33.80       0.96        0.00     250.22       1.63       6.55       0.94       0.00       ----

> <Gold.Chemscore.Fitness>
26.3132

> <Gold.Chemscore.DG>
-33.8035

> <Gold.Chemscore.ZeroCoef>
-5.4800

> <Gold.Chemscore.Hbond>
0.9640

> <Gold.Chemscore.Metal>
0.0000

> <Gold.Chemscore.Lipo>
250.2152

> <Gold.Chemscore.Internal_Hbond>
0.0000

> <Gold.Chemscore.DEClash>
6.5501

> <Gold.Chemscore.DEInternal>
0.9402

> <Gold.Chemscore.Rot>
1.6294

> <Gold.Chemscore.Internal.Correction>
   9.000000E+99

> <Gold.Chemscore.Constraint>
0.0000

> <Gold.Chemscore.Reference.RMSD>
0.0000

> <Gold.Chemscore.Hbonds>
donor molecule, donor type, donor heavy atom, donor atom, acceptor molecule, acceptor atom, score
      L1  H    16    41       P1  2553  0.74

> <Gold.Chemscore.Hbond.Weighted>
-3.2197

> <Gold.Chemscore.Metal.Weighted>
-0.0000

> <Gold.Chemscore.Lipo.Weighted>
-29.2752

> <Gold.Chemscore.Internal_Hbond.Weighted>
0.0000

> <Gold.Chemscore.DEClash.Weighted>
6.5501

> <Gold.Chemscore.DEInternal.Weighted>
0.9402

> <Gold.Chemscore.Rot.Weighted>
4.1713

> <Gold.Chemscore.Internal.Correction.Weighted>
   9.000000E+99

> <Gold.Reference.RMSD>
2.3293

#       Name:                example_1
#       Creating user name   hitesit
#       Creation time:       Mon Nov  6 23:31:10 2023


#       File generated by GOLD software.
#

@<TRIPOS>MOLECULE
example_1|example_1_prep|mol2|1|dock10
    55    58     1
SMALL
NO_CHARGES


@<TRIPOS>ATOM
      1 O1          20.1371 -29.3353  48.5907 O.3            1 RES1               0.0000
      2 C2          20.6711 -29.8527  47.4371 C.ar           1 RES1               0.0000
      3 C3          20.8655 -29.5133  49.8026 C.3            1 RES1               0.0000
      4 C4          19.7534 -30.2081  46.4373 C.ar           1 RES1               0.0000
      5 C5          22.0394 -30.0331  47.2083 C.ar           1 RES1               0.0000
      6 C6          19.9320 -29.2033  50.9590 C.3            1 RES1               0.0000
      7 O7          18.4300 -29.9946  46.7248 O.3            1 RES1               0.0000
      8 C8          20.2298 -30.7453  45.2399 C.ar           1 RES1               0.0000
      9 C9          22.5251 -30.5628  46.0199 C.ar           1 RES1               0.0000
     10 C10         17.4793 -30.2367  45.6981 C.3            1 RES1               0.0000
     11 C11         21.6193 -30.9377  45.0221 C.ar           1 RES1               0.0000
     12 N12         23.8469 -30.6867  45.8808 N.ar           1 RES1               0.0000
     13 C13         22.1909 -31.4790  43.8549 C.ar           1 RES1               0.0000
     14 C14         24.2984 -31.1890  44.7235 C.ar           1 RES1               0.0000
     15 N15         23.5223 -31.5748  43.7014 N.ar           1 RES1               0.0000
     16 N16         21.3753 -31.8897  42.8035 N.pl3          1 RES1               0.0000
     17 C17         25.7802 -31.2853  44.5409 C.3            1 RES1               0.0000
     18 C18         21.8162 -32.9134  41.8661 C.3            1 RES1               0.0000
     19 C19         21.3688 -34.2752  42.3799 C.ar           1 RES1               0.0000
     20 C20         21.2632 -32.5635  40.4798 C.3            1 RES1               0.0000
     21 C21         22.2436 -35.1714  43.0242 C.ar           1 RES1               0.0000
     22 C22         20.0455 -34.6813  42.1588 C.ar           1 RES1               0.0000
     23 C23         21.8163 -36.4351  43.4694 C.ar           1 RES1               0.0000
     24 C24         19.6036 -35.9292  42.5892 C.ar           1 RES1               0.0000
     25 C25         22.7340 -37.3571  44.1424 C.2            1 RES1               0.0000
     26 C26         20.4814 -36.7964  43.2413 C.ar           1 RES1               0.0000
     27 C27         22.4849 -38.4239  44.9054 C.2            1 RES1               0.0000
     28 C28         24.2198 -37.2804  44.0948 C.3            1 RES1               0.0000
     29 N29         23.6178 -39.0413  45.3604 N.2            1 RES1               0.0000
     30 N30         24.6383 -38.4345  44.9334 N.2            1 RES1               0.0000
     31 H1          21.2161 -30.5418  49.8757 H              1 RES1               0.0000
     32 H2          21.7184 -28.8367  49.8242 H              1 RES1               0.0000
     33 H3          22.7461 -29.7493  47.9867 H              1 RES1               0.0000
     34 H4          20.4647 -29.3318  51.9000 H              1 RES1               0.0000
     35 H5          19.0796 -29.8805  50.9290 H              1 RES1               0.0000
     36 H6          19.5820 -28.1753  50.8775 H              1 RES1               0.0000
     37 H7          19.5229 -31.0216  44.4590 H              1 RES1               0.0000
     38 H8          16.4788 -30.0250  46.0725 H              1 RES1               0.0000
     39 H9          17.5377 -31.2788  45.3876 H              1 RES1               0.0000
     40 H10         17.6922 -29.5918  44.8468 H              1 RES1               0.0000
     41 H11         20.4589 -31.4689  42.6886 H              1 RES1               0.0000
     42 H12         25.9985 -31.7084  43.5616 H              1 RES1               0.0000
     43 H13         26.2003 -31.9258  45.3150 H              1 RES1               0.0000
     44 H14         26.2202 -30.2918  44.6134 H              1 RES1               0.0000
     45 H15         22.9041 -32.8986  41.8208 H              1 RES1               0.0000
     46 H16         21.6251 -31.5804  40.1821 H              1 RES1               0.0000
     47 H17         20.1748 -32.5542  40.5150 H              1 RES1               0.0000
     48 H18         21.5967 -33.3071  39.7577 H              1 RES1               0.0000
     49 H19         23.2803 -34.8774  43.1821 H              1 RES1               0.0000
     50 H20         19.3558 -34.0134  41.6447 H              1 RES1               0.0000
     51 H21         18.5711 -36.2293  42.4168 H              1 RES1               0.0000
     52 H22         20.1239 -37.7684  43.5779 H              1 RES1               0.0000
     53 H23         21.4793 -38.7686  45.1420 H              1 RES1               0.0000
     54 H24         24.5774 -36.3412  44.5141 H              1 RES1               0.0000
     55 H25         24.5850 -37.3848  43.0742 H              1 RES1               0.0000
@<TRIPOS>BOND
    1    1    2 1     
    2    1    3 1     
    3    2    4 ar    
    4    2    5 ar    
    5    3    6 1     
    6    4    7 1     
    7    4    8 ar    
    8    5    9 ar    
    9    7   10 1     
   10    8   11 ar    
   11    9   12 ar    
   12   11   13 ar    
   13   12   14 ar    
   14   13   15 ar    
   15   13   16 1     
   16   14   17 1     
   17   16   18 1     
   18   18   19 1     
   19   18   20 1     
   20   19   21 ar    
   21   19   22 ar    
   22   21   23 ar    
   23   22   24 ar    
   24   23   25 1     
   25   23   26 ar    
   26   25   27 2     
   27   25   28 1     
   28   27   29 1     
   29   28   30 1     
   30    9   11 ar    
   31   14   15 ar    
   32   24   26 ar    
   33   29   30 2     
   34    3   31 1     
   35    3   32 1     
   36    5   33 1     
   37    6   34 1     
   38    6   35 1     
   39    6   36 1     
   40    8   37 1     
   41   10   38 1     
   42   10   39 1     
   43   10   40 1     
   44   16   41 1     
   45   17   42 1     
   46   17   43 1     
   47   17   44 1     
   48   18   45 1     
   49   20   46 1     
   50   20   47 1     
   51   20   48 1     
   52   21   49 1     
   53   22   50 1     
   54   24   51 1     
   55   26   52 1     
   56   27   53 1     
   57   28   54 1     
   58   28   55 1     
@<TRIPOS>SUBSTRUCTURE
      1 RES1           1
@<TRIPOS>SET
DONOR_HYDROGENS      STATIC     ATOMS    <user>   **** ""
1 41
ATOM$RED        STATIC     ATOMS    COLORGROUP SYSTEM
1 41
@<TRIPOS>COMMENT
> <Gold.Version>
2022.3.0

> <Gold.Id.Protein>
unknown|5ovf_clean|pdb

> <Gold.Protein.ActiveResidues>
 ILE839  VAL852  ILE856  LEU859  VAL871  LEU872  GLU873  VAL874  VAL875  SER876 
 ALA877  MET878  ASN879  SER880  SER881  PRO882  VAL883  TYR884  ARG885  LEU886 
 ASP887  HIS888  THR889  PHE890  GLU891  GLN892  ILE893  PRO894  SER895  ARG896 
 GLN897  LYS898  LYS899  ILE900  LEU901  GLU902  GLU903  ALA904  HIS905  GLU906 
 LEU907  SER908  GLU909  LYS914  GLU836  ILE839  VAL852  ILE855  ILE856  LEU859 
 GLN863  VAL871  LEU872  VAL874  VAL875  SER876  ALA877  MET878  ASN879  SER880 
 SER881  PRO882  VAL883  TYR884  ARG885  LEU886  ASP887  HIS888  THR889  PHE890 
 GLU891  GLN892  ILE893  PRO894  SER895  ARG896  GLN897  LYS898  LYS899  ILE900 
 LEU901  GLU902  GLU903  ALA904  HIS905  GLU906  LEU907  SER908  GLU909  ASP910 
 LYS914 

> <Gold.Score>
     Fitness  S(hb_ext) S(vdw_ext)  S(hb_int)    S(int)     S(con)      intcor
     76.47       1.30      59.36       0.00      -6.46      -0.00      -8.46

> <Gold.Goldscore.Fitness>
76.4655

> <Gold.Goldscore.Internal.Vdw>
-10.3775

> <Gold.Goldscore.Internal.Torsion>
-4.5412

> <Gold.Goldscore.External.Vdw>
59.3598

> <Gold.Goldscore.Internal.HBond>
0.0000

> <Gold.Goldscore.External.HBond>
1.3031

> <Gold.Goldscore.Internal.Correction>
-8.4614

> <Gold.Goldscore.Constraint.Score>
-0.0000

> <Gold.Goldscore.Reference.RMSD>
0.7809

> <Gold.Goldscore.Hbonds>
donor molecule, donor type, donor heavy atom, donor atom, acceptor molecule, acceptor atom, score
      L1  H    16    41       P1  2553  0.65

> <Gold.Goldscore.Internal.Vdw.Weighted>
-10.3775

> <Gold.Goldscore.Internal.Torsion.Weighted>
-4.5412

> <Gold.Goldscore.External.Vdw.Weighted>
81.6198

> <Gold.Goldscore.Internal.HBond.Weighted>
0.0000

> <Gold.Goldscore.External.HBond.Weighted>
1.3031

> <Gold.Goldscore.Internal.Correction.Weighted>
-8.4614

> <Gold.Rescore>
     Score         DG    S(hbond)    S(metal)    S(lipo)     H(rot)  DE(clash)    DE(int)    DE(con)     intcor
     33.50     -35.31       0.96        0.00     263.13       1.63       0.17       1.64       0.00       ----

> <Gold.Chemscore.Fitness>
33.5014

> <Gold.Chemscore.DG>
-35.3147

> <Gold.Chemscore.ZeroCoef>
-5.4800

> <Gold.Chemscore.Hbond>
0.9639

> <Gold.Chemscore.Metal>
0.0000

> <Gold.Chemscore.Lipo>
263.1327

> <Gold.Chemscore.Internal_Hbond>
0.0000

> <Gold.Chemscore.DEClash>
0.1687

> <Gold.Chemscore.DEInternal>
1.6446

> <Gold.Chemscore.Rot>
1.6294

> <Gold.Chemscore.Internal.Correction>
   9.000000E+99

> <Gold.Chemscore.Constraint>
0.0000

> <Gold.Chemscore.Reference.RMSD>
0.0000

> <Gold.Chemscore.Hbonds>
donor molecule, donor type, donor heavy atom, donor atom, acceptor molecule, acceptor atom, score
      L1  H    16    41       P1  2553  0.94

> <Gold.Chemscore.Hbond.Weighted>
-3.2195

> <Gold.Chemscore.Metal.Weighted>
-0.0000

> <Gold.Chemscore.Lipo.Weighted>
-30.7865

> <Gold.Chemscore.Internal_Hbond.Weighted>
0.0000

> <Gold.Chemscore.DEClash.Weighted>
0.1687

> <Gold.Chemscore.DEInternal.Weighted>
1.6446

> <Gold.Chemscore.Rot.Weighted>
4.1713

> <Gold.Chemscore.Internal.Correction.Weighted>
   9.000000E+99

> <Gold.Reference.RMSD>
0.7809

