#       Name:                CT1002167954
#       Creating user name   hitesit
#       Creation time:       Sun Apr 16 23:04:47 2023


#       File generated by GOLD software.
#

@<TRIPOS>MOLECULE
CT1002167954|ligand_prepared|mol2|1|dock2
    29    30     1
SMALL
NO_CHARGES


@<TRIPOS>ATOM
      1 C1         250.4547   7.7566  35.9121 C.3            1 RES1               0.0000
      2 C2         249.4783   6.5645  35.8451 C.ar           1 RES1               0.0000
      3 C3         249.6572   8.9878  35.4920 C.2            1 RES1               0.0000
      4 C4         250.9678   7.8076  37.3469 C.2            1 RES1               0.0000
      5 C5         251.6753   7.6179  34.9728 C.3            1 RES1               0.0000
      6 C6         249.7331   5.4863  35.0030 C.ar           1 RES1               0.0000
      7 C7         248.3221   6.5277  36.6200 C.ar           1 RES1               0.0000
      8 N8         249.3018   9.8732  36.4665 N.am           1 RES1               0.0000
      9 O9         249.3114   9.1590  34.3295 O.2            1 RES1               0.0000
     10 N10        250.6294   8.8931  38.1117 N.am           1 RES1               0.0000
     11 O11        251.6483   6.9095  37.8273 O.2            1 RES1               0.0000
     12 C12        252.5859   8.8357  34.9669 C.3            1 RES1               0.0000
     13 C13        248.8651   4.4089  34.9399 C.ar           1 RES1               0.0000
     14 C14        247.4553   5.4493  36.5552 C.ar           1 RES1               0.0000
     15 C15        249.7942   9.9134  37.7462 C.2            1 RES1               0.0000
     16 C16        247.7260   4.3894  35.7162 C.ar           1 RES1               0.0000
     17 O17        249.4939  10.8272  38.5090 O.2            1 RES1               0.0000
     18 H18        252.2595   6.7417  35.2799 H              1 RES1               0.0000
     19 H19        251.3165   7.4405  33.9514 H              1 RES1               0.0000
     20 H20        250.6232   5.4851  34.3828 H              1 RES1               0.0000
     21 H21        248.0883   7.3509  37.2865 H              1 RES1               0.0000
     22 H22        248.6055  10.5698  36.2211 H              1 RES1               0.0000
     23 H23        251.0381   8.9455  39.0393 H              1 RES1               0.0000
     24 H24        253.4259   8.6860  34.2919 H              1 RES1               0.0000
     25 H25        252.0437   9.7212  34.6419 H              1 RES1               0.0000
     26 H26        252.9810   9.0266  35.9625 H              1 RES1               0.0000
     27 H27        249.0820   3.5778  34.2769 H              1 RES1               0.0000
     28 H28        246.5596   5.4385  37.1676 H              1 RES1               0.0000
     29 H29        247.0464   3.5450  35.6669 H              1 RES1               0.0000
@<TRIPOS>BOND
    1    1    2 1     
    2    1    3 1     
    3    1    4 1     
    4    1    5 1     
    5    2    6 ar    
    6    2    7 ar    
    7    3    8 1     
    8    3    9 2     
    9    4   10 1     
   10    4   11 2     
   11    5   12 1     
   12    5   18 1     
   13    5   19 1     
   14    6   13 ar    
   15    6   20 1     
   16    7   14 ar    
   17    7   21 1     
   18    8   15 1     
   19    8   22 1     
   20   10   15 1     
   21   10   23 1     
   22   12   24 1     
   23   12   25 1     
   24   12   26 1     
   25   13   16 ar    
   26   13   27 1     
   27   14   16 ar    
   28   14   28 1     
   29   15   17 2     
   30   16   29 1     
@<TRIPOS>SUBSTRUCTURE
      1 RES1           1
@<TRIPOS>SET
DONOR_HYDROGENS      STATIC     ATOMS    <user>   **** ""
2 22 23
ATOM$RED        STATIC     ATOMS    COLORGROUP SYSTEM
2 22 23
@<TRIPOS>COMMENT
> <Gold.Version>
2022.3.0

> <Gold.Id.Protein>
unknown|4v3u_clean|pdb

> <Gold.Protein.RotatedTorsions>
[  576  535  534  533 ] final -149.38 input   59.97 | X-H torsion
[ 2566 2531 2532 2533 ] final  178.75 input  112.83 | X-H torsion
[ 2636 2605 2606 2607 ] final   74.60 input   41.41 | X-H torsion
[ 26091 26055 26054 26052 ] final  168.67 input   60.03 | X-H torsion
[ 27195 27136 27135 27131 ] final   96.29 input   60.01 | X-H torsion
[  728  681  682  683 ] final    1.78 input  102.19 | X-H torsion
[ 7435 7417 7418 7419 ] final  158.23 input   81.33 | X-H torsion
[ 7494 7460 7461 7462 ] final  -39.00 input  103.22 | X-H torsion
[ 7528 7515 7516 7517 ] final -138.45 input   88.53 | X-H torsion
[ 17198 17178 17179 17180 ] final   88.55 input   47.40 | X-H torsion
[ 17258 17224 17225 17226 ] final -164.56 input  102.98 | X-H torsion
[ 18298 18277 18278 18279 ] final  -27.92 input   30.52 | X-H torsion
[ 18328 18315 18316 18317 ] final  101.10 input   53.77 | X-H torsion
[ 18417 18373 18374 18375 ] final    0.06 input   42.60 | X-H torsion
[ 18502 18463 18464 18465 ] final  175.81 input  104.04 | X-H torsion
[ 18570 18535 18536 18537 ] final -113.93 input   89.36 | X-H torsion
[ 18510 18474 18473 18471 ] final  161.60 input   60.01 | X-H torsion
[ 17306 17285 17286 17287 ] final  110.19 input   49.80 | X-H torsion
[ 18250 18212 18213 18214 ] final   48.09 input   46.53 | X-H torsion
[ 18302 18282 18281 18278 ] final  136.04 input   59.98 | X-H torsion
[ 10118 10098 10097 10094 ] final   87.11 input   59.98 | X-H torsion
[ 17002 16966 16965 16963 ] final  -45.47 input   59.99 | X-H torsion
[ 11499 11466 11467 11468 ] final   57.26 input   46.07 | X-H torsion
[ 11572 11531 11532 11533 ] final  -73.61 input  118.20 | X-H torsion
[ 11648 11607 11608 11609 ] final  176.09 input   50.96 | X-H torsion
[ 11438 11418 11417 11414 ] final  135.27 input   60.01 | X-H torsion
[ 27199 27138 27137 27135 ] final    3.19 input   60.02 | X-H torsion
[ 19310 19290 19289 19286 ] final   -1.85 input   60.00 | X-H torsion
[ 10154 10134 10135 10136 ] final  -58.50 input   25.69 | X-H torsion
[ 17361 17335 17336 17337 ] final   -3.68 input   65.66 | X-H torsion
[ 27200  684  683  682 ] final  102.59 input    0.00 | X-H torsion
[ 27203 2534 2533 2532 ] final   11.83 input    0.00 | X-H torsion
[ 27226 7339 7338 7337 ] final  -85.33 input    0.00 | X-H torsion
[ 27232 17131 17130 17129 ] final  -45.92 input    0.00 | X-H torsion
[ 27236 18215 18214 18213 ] final  -57.41 input    0.00 | X-H torsion
[ 27239 18280 18279 18278 ] final   79.12 input    0.00 | X-H torsion
[ 27242 18318 18317 18316 ] final -138.65 input    0.00 | X-H torsion
[ 27245 18376 18375 18374 ] final  -52.22 input   -0.00 | X-H torsion
[ 27253 17181 17180 17179 ] final   95.81 input    0.00 | X-H torsion
[ 27255 17058 17057 17056 ] final -116.50 input    0.00 | X-H torsion
[ 27257 17227 17226 17225 ] final  159.44 input   -0.00 | X-H torsion
[ 27267 10137 10136 10135 ] final  110.02 input    0.00 | X-H torsion
[ 27269 11416 11415 11414 ] final -154.68 input    0.00 | X-H torsion
[ 27275 11610 11609 11608 ] final -141.02 input    0.00 | X-H torsion
[ 27284 18693 18692 18691 ] final  122.27 input    0.00 | X-H torsion

> <Gold.Protein.ActiveResidues>
 LYS309  TRP311  GLU314  MET341  HIS342  TRP414  ALA417  ARG419  CYS420  VAL421 
 GLY422  ARG423  SER462  ALA463  SER482  GLN483  LEU484  ILE485  ARG486  ALA502 
 TRP566  TYR567  LEU569  PRO570  ALA571  VAL572  SER573  ASN574  MET575  PHE589 
 SER590  GLY591  TRP592  TYR593  MET594  GLU597  ILE598  ARG601  ASP602  ASP605 
 SER607  ARG608  TRP683  HIS697  GLU699  TYR711  HEM750  H4B760 

> <Gold.Protein.RotatedAtoms>
  247.3734   25.4975   41.8384 H   0  0  0  0  0  0  0  0  0  0  0  0  # atno 576  bound_to 535 
  245.9607   24.6305   41.8689 H   0  0  0  0  0  0  0  0  0  0  0  0  # atno 577  bound_to 535 
  247.2393   24.0999   40.9580 H   0  0  0  0  0  0  0  0  0  0  0  0  # atno 578  bound_to 535 
  245.7707   25.4465   33.7638 H   0  0  0  0  0  0  0  0  0  0  0  0  # atno 728  bound_to 681 
  239.4581   20.0213   37.3085 H   0  0  0  0  0  0  0  0  0  0  0  0  # atno 2566 bound_to 2531
  239.8737   19.8286   40.6954 H   0  0  0  0  0  0  0  0  0  0  0  0  # atno 2636 bound_to 2605
  240.3046    6.2057   36.3416 H   0  0  0  0  0  0  0  0  0  0  0  0  # atno 7435 bound_to 7417
  241.3309    3.8409   33.3780 H   0  0  0  0  0  0  0  0  0  0  0  0  # atno 7494 bound_to 7460
  242.3600    2.3587   31.4447 H   0  0  0  0  0  0  0  0  0  0  0  0  # atno 7528 bound_to 7515
  248.0158   -5.2560   35.8764 H   0  0  0  0  0  0  0  0  0  0  0  0  # atno 10118 bound_to 10098
  249.0773   -3.8752   40.0989 H   0  0  0  0  0  0  0  0  0  0  0  0  # atno 10154 bound_to 10134
  253.8246   12.9583   41.1910 H   0  0  0  0  0  0  0  0  0  0  0  0  # atno 11438 bound_to 11418
  255.3570   10.3972   42.5407 H   0  0  0  0  0  0  0  0  0  0  0  0  # atno 11499 bound_to 11466
  255.9682    7.4243   42.7279 H   0  0  0  0  0  0  0  0  0  0  0  0  # atno 11572 bound_to 11531
  258.4150    5.4609   41.5109 H   0  0  0  0  0  0  0  0  0  0  0  0  # atno 11648 bound_to 11607
  255.9113    8.7509   35.4109 H   0  0  0  0  0  0  0  0  0  0  0  0  # atno 17002 bound_to 16966
  254.5922    4.4488   38.4796 H   0  0  0  0  0  0  0  0  0  0  0  0  # atno 17198 bound_to 17178
  251.5475    5.3824   39.9761 H   0  0  0  0  0  0  0  0  0  0  0  0  # atno 17258 bound_to 17224
  252.2533    7.2362   43.4053 H   0  0  0  0  0  0  0  0  0  0  0  0  # atno 17306 bound_to 17285
  249.8791    7.9238   45.5860 H   0  0  0  0  0  0  0  0  0  0  0  0  # atno 17361 bound_to 17335
  250.1897    2.9825   43.7327 H   0  0  0  0  0  0  0  0  0  0  0  0  # atno 18250 bound_to 18212
  249.4861   -0.0586   40.9007 H   0  0  0  0  0  0  0  0  0  0  0  0  # atno 18298 bound_to 18277
  253.5406   -1.6545   39.3176 H   0  0  0  0  0  0  0  0  0  0  0  0  # atno 18302 bound_to 18282
  249.9667    0.8445   37.4022 H   0  0  0  0  0  0  0  0  0  0  0  0  # atno 18328 bound_to 18315
  249.6363    0.0520   33.9712 H   0  0  0  0  0  0  0  0  0  0  0  0  # atno 18417 bound_to 18373
  252.5301    1.6348   32.1025 H   0  0  0  0  0  0  0  0  0  0  0  0  # atno 18502 bound_to 18463
  255.7991    7.1072   34.2039 H   0  0  0  0  0  0  0  0  0  0  0  0  # atno 18510 bound_to 18474
  250.3328    2.7984   29.3362 H   0  0  0  0  0  0  0  0  0  0  0  0  # atno 18570 bound_to 18535
  253.0682   21.3264   32.7332 H   0  0  0  0  0  0  0  0  0  0  0  0  # atno 19310 bound_to 19290
  241.6219   13.0488   39.7801 H   0  0  0  0  0  0  0  0  0  0  0  0  # atno 26091 bound_to 26055
  242.7614   19.9632   31.3017 H   0  0  0  0  0  0  0  0  0  0  0  0  # atno 27195 bound_to 27136
  240.6428   18.3667   34.3665 H   0  0  0  0  0  0  0  0  0  0  0  0  # atno 27199 bound_to 27138
  249.4281   22.8933   34.7555 LP  0  0  0  0  0  0  0  0  0  0  0  0  # atno 27200 bound_to 684 
  249.4157   24.2311   35.8555 LP  0  0  0  0  0  0  0  0  0  0  0  0  # atno 27201 bound_to 684 
  238.5898   19.9179   38.8215 LP  0  0  0  0  0  0  0  0  0  0  0  0  # atno 27202 bound_to 2531
  240.3475   16.1561   39.6712 LP  0  0  0  0  0  0  0  0  0  0  0  0  # atno 27203 bound_to 2534
  239.5315   16.4533   41.1697 LP  0  0  0  0  0  0  0  0  0  0  0  0  # atno 27204 bound_to 2534
  239.2825   18.2575   40.2077 LP  0  0  0  0  0  0  0  0  0  0  0  0  # atno 27205 bound_to 2605
  242.8714   12.0072   39.8038 LP  0  0  0  0  0  0  0  0  0  0  0  0  # atno 27209 bound_to 26055
  243.1373   13.6007   39.5660 LP  0  0  0  0  0  0  0  0  0  0  0  0  # atno 27210 bound_to 26055
  243.9471   18.9342   31.7311 LP  0  0  0  0  0  0  0  0  0  0  0  0  # atno 27213 bound_to 27136
  243.7801   20.3612   32.5071 LP  0  0  0  0  0  0  0  0  0  0  0  0  # atno 27214 bound_to 27136
  244.6563   24.8121   34.9448 LP  0  0  0  0  0  0  0  0  0  0  0  0  # atno 27215 bound_to 681 
  241.0565    7.7567   33.3651 LP  0  0  0  0  0  0  0  0  0  0  0  0  # atno 27226 bound_to 7339
  242.1141    7.8528   34.7334 LP  0  0  0  0  0  0  0  0  0  0  0  0  # atno 27227 bound_to 7339
  239.5181    6.2219   34.7838 LP  0  0  0  0  0  0  0  0  0  0  0  0  # atno 27228 bound_to 7417
  241.7524    5.2962   32.5017 LP  0  0  0  0  0  0  0  0  0  0  0  0  # atno 27229 bound_to 7460
  241.8112    2.1729   33.0951 LP  0  0  0  0  0  0  0  0  0  0  0  0  # atno 27230 bound_to 7515
  251.5930    2.6590   36.9427 LP  0  0  0  0  0  0  0  0  0  0  0  0  # atno 27232 bound_to 17131
  252.3681    1.9876   38.3386 LP  0  0  0  0  0  0  0  0  0  0  0  0  # atno 27233 bound_to 17131
  252.9804    4.2224   37.8452 LP  0  0  0  0  0  0  0  0  0  0  0  0  # atno 27234 bound_to 17178
  251.5914    4.3237   41.3690 LP  0  0  0  0  0  0  0  0  0  0  0  0  # atno 27235 bound_to 17224
  250.1842    3.1589   41.4150 LP  0  0  0  0  0  0  0  0  0  0  0  0  # atno 27236 bound_to 18215
  251.7606    2.5137   41.1008 LP  0  0  0  0  0  0  0  0  0  0  0  0  # atno 27237 bound_to 18215
  250.9856    0.4099   41.6643 LP  0  0  0  0  0  0  0  0  0  0  0  0  # atno 27238 bound_to 18277
  249.1253   -1.7648   39.3317 LP  0  0  0  0  0  0  0  0  0  0  0  0  # atno 27239 bound_to 18280
  250.5423   -2.5046   38.6646 LP  0  0  0  0  0  0  0  0  0  0  0  0  # atno 27240 bound_to 18280
  251.0219   -0.4549   37.9140 LP  0  0  0  0  0  0  0  0  0  0  0  0  # atno 27241 bound_to 18315
  252.8171   -0.5972   34.8968 LP  0  0  0  0  0  0  0  0  0  0  0  0  # atno 27242 bound_to 18318
  252.2966   -1.9178   35.8893 LP  0  0  0  0  0  0  0  0  0  0  0  0  # atno 27243 bound_to 18318
  250.6416   -1.2903   34.4518 LP  0  0  0  0  0  0  0  0  0  0  0  0  # atno 27244 bound_to 18373
  249.0618    0.8294   32.0141 LP  0  0  0  0  0  0  0  0  0  0  0  0  # atno 27245 bound_to 18376
  249.6446    2.4172   32.3869 LP  0  0  0  0  0  0  0  0  0  0  0  0  # atno 27246 bound_to 18376
  251.4660    0.7841   31.0010 LP  0  0  0  0  0  0  0  0  0  0  0  0  # atno 27247 bound_to 18463
  249.9548    4.4241   29.8551 LP  0  0  0  0  0  0  0  0  0  0  0  0  # atno 27248 bound_to 18535
  253.7607    6.6779   40.7022 LP  0  0  0  0  0  0  0  0  0  0  0  0  # atno 27253 bound_to 17181
  253.9803    5.6492   42.0782 LP  0  0  0  0  0  0  0  0  0  0  0  0  # atno 27254 bound_to 17181
  256.2671    3.7898   37.8533 LP  0  0  0  0  0  0  0  0  0  0  0  0  # atno 27255 bound_to 17058
  257.3900    4.1449   36.5834 LP  0  0  0  0  0  0  0  0  0  0  0  0  # atno 27256 bound_to 17058
  251.0383    4.5946   44.6123 LP  0  0  0  0  0  0  0  0  0  0  0  0  # atno 27257 bound_to 17227
  250.0040    4.3408   43.2464 LP  0  0  0  0  0  0  0  0  0  0  0  0  # atno 27258 bound_to 17227
  254.3100    7.7579   34.2886 LP  0  0  0  0  0  0  0  0  0  0  0  0  # atno 27259 bound_to 18474
  255.3554    8.2513   33.1352 LP  0  0  0  0  0  0  0  0  0  0  0  0  # atno 27260 bound_to 18474
  250.5805    6.8560   43.7280 LP  0  0  0  0  0  0  0  0  0  0  0  0  # atno 27261 bound_to 17285
  250.5823    1.7281   44.8828 LP  0  0  0  0  0  0  0  0  0  0  0  0  # atno 27262 bound_to 18212
  251.9748   -1.8363   39.7202 LP  0  0  0  0  0  0  0  0  0  0  0  0  # atno 27263 bound_to 18282
  253.0705   -1.4216   40.8577 LP  0  0  0  0  0  0  0  0  0  0  0  0  # atno 27264 bound_to 18282
  248.6636   -3.7939   36.1778 LP  0  0  0  0  0  0  0  0  0  0  0  0  # atno 27265 bound_to 10098
  247.0505   -4.0165   36.3008 LP  0  0  0  0  0  0  0  0  0  0  0  0  # atno 27266 bound_to 10098
  248.9749   -1.5663   42.1307 LP  0  0  0  0  0  0  0  0  0  0  0  0  # atno 27267 bound_to 10137
  250.6996   -1.6382   41.9890 LP  0  0  0  0  0  0  0  0  0  0  0  0  # atno 27268 bound_to 10137
  252.3717    8.6068   42.8102 LP  0  0  0  0  0  0  0  0  0  0  0  0  # atno 27269 bound_to 11416
  251.5343   10.1036   43.0516 LP  0  0  0  0  0  0  0  0  0  0  0  0  # atno 27270 bound_to 11416
  257.0189    9.9132   35.6756 LP  0  0  0  0  0  0  0  0  0  0  0  0  # atno 27271 bound_to 16966
  256.5295    8.9530   36.9024 LP  0  0  0  0  0  0  0  0  0  0  0  0  # atno 27272 bound_to 16966
  253.7822    9.9601   43.1695 LP  0  0  0  0  0  0  0  0  0  0  0  0  # atno 27273 bound_to 11466
  255.3891    5.9489   41.9928 LP  0  0  0  0  0  0  0  0  0  0  0  0  # atno 27274 bound_to 11531
  258.4428    8.3372   37.5801 LP  0  0  0  0  0  0  0  0  0  0  0  0  # atno 27275 bound_to 11610
  257.4731    7.3552   38.6267 LP  0  0  0  0  0  0  0  0  0  0  0  0  # atno 27276 bound_to 11610
  257.5660    6.8847   40.9590 LP  0  0  0  0  0  0  0  0  0  0  0  0  # atno 27279 bound_to 11607
  254.7216   11.8247   41.9380 LP  0  0  0  0  0  0  0  0  0  0  0  0  # atno 27282 bound_to 11418
  254.9912   13.4081   42.2322 LP  0  0  0  0  0  0  0  0  0  0  0  0  # atno 27283 bound_to 11418
  253.1535   11.2831   30.2422 LP  0  0  0  0  0  0  0  0  0  0  0  0  # atno 27284 bound_to 18693
  251.9450   12.0782   29.2896 LP  0  0  0  0  0  0  0  0  0  0  0  0  # atno 27285 bound_to 18693

> <Gold.Score>
     Fitness  S(hb_ext) S(vdw_ext)  S(hb_int)    S(int)      intcor
     41.44       1.92      29.55       0.00      -1.11      -0.79

> <Gold.Goldscore.Fitness>
41.4383

> <Gold.Goldscore.Internal.Vdw>
-1.4961

> <Gold.Goldscore.Internal.Torsion>
-0.3955

> <Gold.Goldscore.External.Vdw>
29.5475

> <Gold.Goldscore.Internal.HBond>
0.0000

> <Gold.Goldscore.External.HBond>
1.9170

> <Gold.Goldscore.Internal.Correction>
-0.7850

> <Gold.Goldscore.Hbonds>
donor molecule, donor type, donor heavy atom, donor atom, acceptor molecule, acceptor atom, score
      P1  H 17224 17258       L1    11  0.15
      L1  H     8    22       P1 26924  0.27

> <Gold.Goldscore.Internal.Vdw.Weighted>
-1.4961

> <Gold.Goldscore.Internal.Torsion.Weighted>
-0.3955

> <Gold.Goldscore.External.Vdw.Weighted>
40.6278

> <Gold.Goldscore.Internal.HBond.Weighted>
0.0000

> <Gold.Goldscore.External.HBond.Weighted>
1.9170

> <Gold.Goldscore.Internal.Correction.Weighted>
-0.7850

> <Gold.Rescore>
     Score     S(PLP)   S(hbond)     S(cho)   S(metal)  DE(clash)   DE(tors)     intcor
     35.55     -33.02       0.93       0.00       0.00       0.00       0.13       ----

> <Gold.PLP.Fitness>
35.5509

> <Gold.PLP.PLP>
-33.0225

> <Gold.PLP.part.hbond>
-1.1778

> <Gold.PLP.part.metal>
0.0000

> <Gold.PLP.part.buried>
5.0051

> <Gold.PLP.part.nonpolar>
-44.6871

> <Gold.PLP.part.repulsive>
6.0837

> <Gold.PLP.ligand.clash>
0.0000

> <Gold.PLP.ligand.torsion>
0.1252

> <Gold.PLP.Chemscore.Hbond>
0.9263

> <Gold.PLP.Chemscore.CHOScore>
0.0000

> <Gold.PLP.Chemscore.Metal>
0.0000

> <Gold.Chemscore.Hbonds>
donor molecule, donor type, donor heavy atom, donor atom, acceptor molecule, acceptor atom, score
      L1  H     8    22       P1 26924  0.91

> <Gold.PLP.Chemscore.Internal.Correction>
   9.000000E+99

#       Name:                CT1002167954
#       Creating user name   hitesit
#       Creation time:       Sun Apr 16 23:04:51 2023


#       File generated by GOLD software.
#

@<TRIPOS>MOLECULE
CT1002167954|ligand_prepared|mol2|1|dock8
    29    30     1
SMALL
NO_CHARGES


@<TRIPOS>ATOM
      1 C1         250.3647   8.1503  35.8841 C.3            1 RES1               0.0000
      2 C2         249.5197   6.8642  35.7815 C.ar           1 RES1               0.0000
      3 C3         249.4003   9.3143  35.6764 C.2            1 RES1               0.0000
      4 C4         251.0188   8.1223  37.2611 C.2            1 RES1               0.0000
      5 C5         251.4867   8.2469  34.8241 C.3            1 RES1               0.0000
      6 C6         248.3069   6.7575  36.4557 C.ar           1 RES1               0.0000
      7 C7         249.9377   5.7790  35.0157 C.ar           1 RES1               0.0000
      8 N8         249.0578  10.0538  36.7699 N.am           1 RES1               0.0000
      9 O9         248.9169   9.5553  34.5771 O.2            1 RES1               0.0000
     10 N10        250.6494   9.0818  38.1670 N.am           1 RES1               0.0000
     11 O11        251.8383   7.2680  37.5754 O.2            1 RES1               0.0000
     12 C12        252.2030   9.5881  34.8100 C.3            1 RES1               0.0000
     13 C13        247.5383   5.6088  36.3653 C.ar           1 RES1               0.0000
     14 C14        249.1677   4.6311  34.9270 C.ar           1 RES1               0.0000
     15 C15        249.6759  10.0277  37.9942 C.2            1 RES1               0.0000
     16 C16        247.9679   4.5451  35.6007 C.ar           1 RES1               0.0000
     17 O17        249.3623  10.8221  38.8761 O.2            1 RES1               0.0000
     18 H18        252.2222   7.4558  35.0154 H              1 RES1               0.0000
     19 H19        251.0523   8.0682  33.8328 H              1 RES1               0.0000
     20 H20        247.9538   7.5833  37.0642 H              1 RES1               0.0000
     21 H21        250.8786   5.8239  34.4780 H              1 RES1               0.0000
     22 H22        248.2690  10.6845  36.6680 H              1 RES1               0.0000
     23 H23        251.1462   9.0919  39.0521 H              1 RES1               0.0000
     24 H24        252.9800   9.6024  34.0487 H              1 RES1               0.0000
     25 H25        251.5055  10.3957  34.5975 H              1 RES1               0.0000
     26 H26        252.6685   9.7869  35.7732 H              1 RES1               0.0000
     27 H27        246.5955   5.5456  36.8986 H              1 RES1               0.0000
     28 H28        249.5099   3.7962  34.3245 H              1 RES1               0.0000
     29 H29        247.3655   3.6455  35.5298 H              1 RES1               0.0000
@<TRIPOS>BOND
    1    1    2 1     
    2    1    3 1     
    3    1    4 1     
    4    1    5 1     
    5    2    6 ar    
    6    2    7 ar    
    7    3    8 1     
    8    3    9 2     
    9    4   10 1     
   10    4   11 2     
   11    5   12 1     
   12    5   18 1     
   13    5   19 1     
   14    6   13 ar    
   15    6   20 1     
   16    7   14 ar    
   17    7   21 1     
   18    8   15 1     
   19    8   22 1     
   20   10   15 1     
   21   10   23 1     
   22   12   24 1     
   23   12   25 1     
   24   12   26 1     
   25   13   16 ar    
   26   13   27 1     
   27   14   16 ar    
   28   14   28 1     
   29   15   17 2     
   30   16   29 1     
@<TRIPOS>SUBSTRUCTURE
      1 RES1           1
@<TRIPOS>SET
DONOR_HYDROGENS      STATIC     ATOMS    <user>   **** ""
2 22 23
ATOM$RED        STATIC     ATOMS    COLORGROUP SYSTEM
2 22 23
@<TRIPOS>COMMENT
> <Gold.Version>
2022.3.0

> <Gold.Id.Protein>
unknown|4v3u_clean|pdb

> <Gold.Protein.RotatedTorsions>
[  576  535  534  533 ] final  -65.11 input   59.97 | X-H torsion
[ 2566 2531 2532 2533 ] final   95.42 input  112.83 | X-H torsion
[ 2636 2605 2606 2607 ] final -159.35 input   41.41 | X-H torsion
[ 26091 26055 26054 26052 ] final  149.28 input   60.03 | X-H torsion
[ 27195 27136 27135 27131 ] final  -17.91 input   60.01 | X-H torsion
[  728  681  682  683 ] final   -5.56 input  102.19 | X-H torsion
[ 7435 7417 7418 7419 ] final  -40.87 input   81.33 | X-H torsion
[ 7494 7460 7461 7462 ] final -131.41 input  103.22 | X-H torsion
[ 7528 7515 7516 7517 ] final  -19.86 input   88.53 | X-H torsion
[ 17198 17178 17179 17180 ] final  -30.19 input   47.40 | X-H torsion
[ 17258 17224 17225 17226 ] final  125.36 input  102.98 | X-H torsion
[ 18298 18277 18278 18279 ] final  167.10 input   30.52 | X-H torsion
[ 18328 18315 18316 18317 ] final -178.08 input   53.77 | X-H torsion
[ 18417 18373 18374 18375 ] final -137.64 input   42.60 | X-H torsion
[ 18502 18463 18464 18465 ] final  -74.12 input  104.04 | X-H torsion
[ 18570 18535 18536 18537 ] final -177.63 input   89.36 | X-H torsion
[ 18510 18474 18473 18471 ] final   47.16 input   60.01 | X-H torsion
[ 17306 17285 17286 17287 ] final   86.85 input   49.80 | X-H torsion
[ 18250 18212 18213 18214 ] final  160.76 input   46.53 | X-H torsion
[ 18302 18282 18281 18278 ] final  -86.43 input   59.98 | X-H torsion
[ 10118 10098 10097 10094 ] final  139.01 input   59.98 | X-H torsion
[ 17002 16966 16965 16963 ] final   21.03 input   59.99 | X-H torsion
[ 11499 11466 11467 11468 ] final   -1.60 input   46.07 | X-H torsion
[ 11572 11531 11532 11533 ] final  148.20 input  118.20 | X-H torsion
[ 11648 11607 11608 11609 ] final   -0.45 input   50.96 | X-H torsion
[ 11438 11418 11417 11414 ] final -153.95 input   60.01 | X-H torsion
[ 27199 27138 27137 27135 ] final  142.85 input   60.02 | X-H torsion
[ 19310 19290 19289 19286 ] final  179.18 input   60.00 | X-H torsion
[ 10154 10134 10135 10136 ] final  154.86 input   25.69 | X-H torsion
[ 17361 17335 17336 17337 ] final   71.70 input   65.66 | X-H torsion
[ 27200  684  683  682 ] final    3.12 input    0.00 | X-H torsion
[ 27203 2534 2533 2532 ] final  -20.10 input    0.00 | X-H torsion
[ 27226 7339 7338 7337 ] final   83.97 input    0.00 | X-H torsion
[ 27232 17131 17130 17129 ] final  147.50 input    0.00 | X-H torsion
[ 27236 18215 18214 18213 ] final  142.80 input    0.00 | X-H torsion
[ 27239 18280 18279 18278 ] final -114.06 input    0.00 | X-H torsion
[ 27242 18318 18317 18316 ] final -119.54 input    0.00 | X-H torsion
[ 27245 18376 18375 18374 ] final -153.31 input   -0.00 | X-H torsion
[ 27253 17181 17180 17179 ] final -143.55 input    0.00 | X-H torsion
[ 27255 17058 17057 17056 ] final  122.40 input    0.00 | X-H torsion
[ 27257 17227 17226 17225 ] final  -15.57 input   -0.00 | X-H torsion
[ 27267 10137 10136 10135 ] final   70.43 input    0.00 | X-H torsion
[ 27269 11416 11415 11414 ] final -121.01 input    0.00 | X-H torsion
[ 27275 11610 11609 11608 ] final  136.15 input    0.00 | X-H torsion
[ 27284 18693 18692 18691 ] final   92.62 input    0.00 | X-H torsion

> <Gold.Protein.ActiveResidues>
 LYS309  TRP311  GLU314  MET341  HIS342  TRP414  ALA417  ARG419  CYS420  VAL421 
 GLY422  ARG423  SER462  ALA463  SER482  GLN483  LEU484  ILE485  ARG486  ALA502 
 TRP566  TYR567  LEU569  PRO570  ALA571  VAL572  SER573  ASN574  MET575  PHE589 
 SER590  GLY591  TRP592  TYR593  MET594  GLU597  ILE598  ARG601  ASP602  ASP605 
 SER607  ARG608  TRP683  HIS697  GLU699  TYR711  HEM750  H4B760 

> <Gold.Protein.RotatedAtoms>
  246.1747   25.1235   42.1072 H   0  0  0  0  0  0  0  0  0  0  0  0  # atno 576  bound_to 535 
  246.6916   23.9285   41.0810 H   0  0  0  0  0  0  0  0  0  0  0  0  # atno 577  bound_to 535 
  247.7069   25.1767   41.4778 H   0  0  0  0  0  0  0  0  0  0  0  0  # atno 578  bound_to 535 
  245.7916   25.5279   33.8379 H   0  0  0  0  0  0  0  0  0  0  0  0  # atno 728  bound_to 681 
  239.6261   20.5519   38.3436 H   0  0  0  0  0  0  0  0  0  0  0  0  # atno 2566 bound_to 2531
  240.0622   18.3026   40.3458 H   0  0  0  0  0  0  0  0  0  0  0  0  # atno 2636 bound_to 2605
  239.6959    6.4458   34.7359 H   0  0  0  0  0  0  0  0  0  0  0  0  # atno 7435 bound_to 7417
  240.7146    4.8959   32.9820 H   0  0  0  0  0  0  0  0  0  0  0  0  # atno 7494 bound_to 7460
  241.2830    1.9076   32.4252 H   0  0  0  0  0  0  0  0  0  0  0  0  # atno 7528 bound_to 7515
  247.2477   -5.0126   36.0249 H   0  0  0  0  0  0  0  0  0  0  0  0  # atno 10118 bound_to 10098
  250.5079   -4.7209   39.7815 H   0  0  0  0  0  0  0  0  0  0  0  0  # atno 10154 bound_to 10134
  254.4302   13.6628   41.7499 H   0  0  0  0  0  0  0  0  0  0  0  0  # atno 11438 bound_to 11418
  255.2979   10.0203   43.3293 H   0  0  0  0  0  0  0  0  0  0  0  0  # atno 11499 bound_to 11466
  255.1683    5.9901   42.5745 H   0  0  0  0  0  0  0  0  0  0  0  0  # atno 11572 bound_to 11531
  257.5382    6.8710   40.9125 H   0  0  0  0  0  0  0  0  0  0  0  0  # atno 11648 bound_to 11607
  255.9997    8.5184   36.4068 H   0  0  0  0  0  0  0  0  0  0  0  0  # atno 17002 bound_to 16966
  253.2255    5.0231   38.1472 H   0  0  0  0  0  0  0  0  0  0  0  0  # atno 17198 bound_to 17178
  250.7862    4.7691   40.2705 H   0  0  0  0  0  0  0  0  0  0  0  0  # atno 17258 bound_to 17224
  252.1239    7.5543   43.4989 H   0  0  0  0  0  0  0  0  0  0  0  0  # atno 17306 bound_to 17285
  250.3387    8.6562   44.9384 H   0  0  0  0  0  0  0  0  0  0  0  0  # atno 17361 bound_to 17335
  249.7111    2.1486   44.8414 H   0  0  0  0  0  0  0  0  0  0  0  0  # atno 18250 bound_to 18212
  250.9118    0.6261   41.6490 H   0  0  0  0  0  0  0  0  0  0  0  0  # atno 18298 bound_to 18277
  252.7878   -1.4615   40.8796 H   0  0  0  0  0  0  0  0  0  0  0  0  # atno 18302 bound_to 18282
  249.7735   -0.0361   38.1212 H   0  0  0  0  0  0  0  0  0  0  0  0  # atno 18328 bound_to 18315
  250.7925   -0.7761   34.7822 H   0  0  0  0  0  0  0  0  0  0  0  0  # atno 18417 bound_to 18373
  251.1459    1.2424   31.8357 H   0  0  0  0  0  0  0  0  0  0  0  0  # atno 18502 bound_to 18463
  254.3446    7.6925   34.3425 H   0  0  0  0  0  0  0  0  0  0  0  0  # atno 18510 bound_to 18474
  249.5111    3.0133   29.7243 H   0  0  0  0  0  0  0  0  0  0  0  0  # atno 18570 bound_to 18535
  252.0309   22.3605   33.8985 H   0  0  0  0  0  0  0  0  0  0  0  0  # atno 19310 bound_to 19290
  241.6235   12.7364   39.8218 H   0  0  0  0  0  0  0  0  0  0  0  0  # atno 26091 bound_to 26055
  243.8810   18.9196   31.6640 H   0  0  0  0  0  0  0  0  0  0  0  0  # atno 27195 bound_to 27136
  239.5099   19.6935   34.1555 H   0  0  0  0  0  0  0  0  0  0  0  0  # atno 27199 bound_to 27138
  248.9151   23.2323   35.9255 LP  0  0  0  0  0  0  0  0  0  0  0  0  # atno 27200 bound_to 684 
  249.9287   23.8921   34.6856 LP  0  0  0  0  0  0  0  0  0  0  0  0  # atno 27201 bound_to 684 
  238.4257   19.3994   37.8101 LP  0  0  0  0  0  0  0  0  0  0  0  0  # atno 27202 bound_to 2531
  239.8823   16.1127   39.5779 LP  0  0  0  0  0  0  0  0  0  0  0  0  # atno 27203 bound_to 2534
  239.9968   16.4967   41.2630 LP  0  0  0  0  0  0  0  0  0  0  0  0  # atno 27204 bound_to 2534
  239.0985   19.7468   40.5489 LP  0  0  0  0  0  0  0  0  0  0  0  0  # atno 27205 bound_to 2605
  243.1445   12.1626   39.7582 LP  0  0  0  0  0  0  0  0  0  0  0  0  # atno 27209 bound_to 26055
  242.8626   13.7600   39.5695 LP  0  0  0  0  0  0  0  0  0  0  0  0  # atno 27210 bound_to 26055
  243.8480   20.2979   32.5291 LP  0  0  0  0  0  0  0  0  0  0  0  0  # atno 27213 bound_to 27136
  242.7522   20.0478   31.3445 LP  0  0  0  0  0  0  0  0  0  0  0  0  # atno 27214 bound_to 27136
  244.6356   24.7314   34.8714 LP  0  0  0  0  0  0  0  0  0  0  0  0  # atno 27215 bound_to 681 
  242.0535    8.0015   34.7507 LP  0  0  0  0  0  0  0  0  0  0  0  0  # atno 27226 bound_to 7339
  241.1171    7.6080   33.3477 LP  0  0  0  0  0  0  0  0  0  0  0  0  # atno 27227 bound_to 7339
  240.1177    5.9854   36.3656 LP  0  0  0  0  0  0  0  0  0  0  0  0  # atno 27228 bound_to 7417
  242.3485    4.2759   32.8847 LP  0  0  0  0  0  0  0  0  0  0  0  0  # atno 27229 bound_to 7460
  242.8588    2.6116   32.1414 LP  0  0  0  0  0  0  0  0  0  0  0  0  # atno 27230 bound_to 7515
  252.2469    2.1156   38.4381 LP  0  0  0  0  0  0  0  0  0  0  0  0  # atno 27232 bound_to 17131
  251.7142    2.5310   36.8432 LP  0  0  0  0  0  0  0  0  0  0  0  0  # atno 27233 bound_to 17131
  254.3180    3.6603   38.1704 LP  0  0  0  0  0  0  0  0  0  0  0  0  # atno 27234 bound_to 17178
  252.3287    4.9176   41.0839 LP  0  0  0  0  0  0  0  0  0  0  0  0  # atno 27235 bound_to 17224
  251.6360    2.4865   40.8251 LP  0  0  0  0  0  0  0  0  0  0  0  0  # atno 27236 bound_to 18215
  250.3089    3.1861   41.6907 LP  0  0  0  0  0  0  0  0  0  0  0  0  # atno 27237 bound_to 18215
  249.5892   -0.2608   40.9314 LP  0  0  0  0  0  0  0  0  0  0  0  0  # atno 27238 bound_to 18277
  250.4321   -2.5132   38.4994 LP  0  0  0  0  0  0  0  0  0  0  0  0  # atno 27239 bound_to 18280
  249.2355   -1.7562   39.4969 LP  0  0  0  0  0  0  0  0  0  0  0  0  # atno 27240 bound_to 18280
  251.2089    0.3973   37.2181 LP  0  0  0  0  0  0  0  0  0  0  0  0  # atno 27241 bound_to 18315
  252.7995   -0.4624   35.1501 LP  0  0  0  0  0  0  0  0  0  0  0  0  # atno 27242 bound_to 18318
  252.3142   -2.0525   35.6360 LP  0  0  0  0  0  0  0  0  0  0  0  0  # atno 27243 bound_to 18318
  249.4998   -0.4725   33.6508 LP  0  0  0  0  0  0  0  0  0  0  0  0  # atno 27244 bound_to 18373
  249.4058    1.9715   31.4093 LP  0  0  0  0  0  0  0  0  0  0  0  0  # atno 27245 bound_to 18376
  249.3005    1.2751   32.9917 LP  0  0  0  0  0  0  0  0  0  0  0  0  # atno 27246 bound_to 18376
  252.7978    1.1616   31.2577 LP  0  0  0  0  0  0  0  0  0  0  0  0  # atno 27247 bound_to 18463
  250.7565    4.2144   29.4765 LP  0  0  0  0  0  0  0  0  0  0  0  0  # atno 27248 bound_to 18535
  253.3904    6.2713   42.1029 LP  0  0  0  0  0  0  0  0  0  0  0  0  # atno 27253 bound_to 17181
  254.3506    6.0558   40.6775 LP  0  0  0  0  0  0  0  0  0  0  0  0  # atno 27254 bound_to 17181
  256.6542    4.5718   36.6232 LP  0  0  0  0  0  0  0  0  0  0  0  0  # atno 27255 bound_to 17058
  257.0029    3.3628   37.8135 LP  0  0  0  0  0  0  0  0  0  0  0  0  # atno 27256 bound_to 17058
  250.0626    4.3080   43.2123 LP  0  0  0  0  0  0  0  0  0  0  0  0  # atno 27257 bound_to 17227
  250.9797    4.6275   44.6464 LP  0  0  0  0  0  0  0  0  0  0  0  0  # atno 27258 bound_to 17227
  255.2711    8.2853   33.1432 LP  0  0  0  0  0  0  0  0  0  0  0  0  # atno 27259 bound_to 18474
  255.8598    7.1343   34.1409 LP  0  0  0  0  0  0  0  0  0  0  0  0  # atno 27260 bound_to 18474
  250.7078    6.5431   43.6359 LP  0  0  0  0  0  0  0  0  0  0  0  0  # atno 27261 bound_to 17285
  251.0519    2.5461   43.7952 LP  0  0  0  0  0  0  0  0  0  0  0  0  # atno 27262 bound_to 18212
  253.7049   -1.5842   39.5413 LP  0  0  0  0  0  0  0  0  0  0  0  0  # atno 27263 bound_to 18282
  252.0987   -1.8681   39.4630 LP  0  0  0  0  0  0  0  0  0  0  0  0  # atno 27264 bound_to 18282
  248.8138   -4.5754   35.9599 LP  0  0  0  0  0  0  0  0  0  0  0  0  # atno 27265 bound_to 10098
  247.6737   -3.4802   36.3692 LP  0  0  0  0  0  0  0  0  0  0  0  0  # atno 27266 bound_to 10098
  249.1222   -1.7877   41.6078 LP  0  0  0  0  0  0  0  0  0  0  0  0  # atno 27267 bound_to 10137
  250.5523   -1.4168   42.5119 LP  0  0  0  0  0  0  0  0  0  0  0  0  # atno 27268 bound_to 10137
  252.2779    8.6432   43.3016 LP  0  0  0  0  0  0  0  0  0  0  0  0  # atno 27269 bound_to 11416
  251.6281   10.0672   42.5602 LP  0  0  0  0  0  0  0  0  0  0  0  0  # atno 27270 bound_to 11416
  256.3674    9.3793   35.0759 LP  0  0  0  0  0  0  0  0  0  0  0  0  # atno 27271 bound_to 16966
  257.0919    9.7211   36.4989 LP  0  0  0  0  0  0  0  0  0  0  0  0  # atno 27272 bound_to 16966
  253.8392   10.3236   42.4090 LP  0  0  0  0  0  0  0  0  0  0  0  0  # atno 27273 bound_to 11466
  256.1723    7.3533   42.1430 LP  0  0  0  0  0  0  0  0  0  0  0  0  # atno 27274 bound_to 11531
  257.6663    8.6148   38.3756 LP  0  0  0  0  0  0  0  0  0  0  0  0  # atno 27275 bound_to 11610
  258.2495    7.0775   37.8312 LP  0  0  0  0  0  0  0  0  0  0  0  0  # atno 27276 bound_to 11610
  258.4243    5.5043   41.5448 LP  0  0  0  0  0  0  0  0  0  0  0  0  # atno 27279 bound_to 11607
  253.9426   12.1883   41.2644 LP  0  0  0  0  0  0  0  0  0  0  0  0  # atno 27282 bound_to 11418
  255.1602   12.3349   42.3427 LP  0  0  0  0  0  0  0  0  0  0  0  0  # atno 27283 bound_to 11418
  252.7852   11.2652   30.4882 LP  0  0  0  0  0  0  0  0  0  0  0  0  # atno 27284 bound_to 18693
  252.3133   12.0961   29.0436 LP  0  0  0  0  0  0  0  0  0  0  0  0  # atno 27285 bound_to 18693

> <Gold.Score>
     Fitness  S(hb_ext) S(vdw_ext)  S(hb_int)    S(int)      intcor
     38.71       1.11      27.41       0.00      -0.09      -0.77

> <Gold.Goldscore.Fitness>
38.7131

> <Gold.Goldscore.Internal.Vdw>
-0.3994

> <Gold.Goldscore.Internal.Torsion>
-0.4571

> <Gold.Goldscore.External.Vdw>
27.4110

> <Gold.Goldscore.Internal.HBond>
0.0000

> <Gold.Goldscore.External.HBond>
1.1102

> <Gold.Goldscore.Internal.Correction>
-0.7693

> <Gold.Goldscore.Hbonds>
donor molecule, donor type, donor heavy atom, donor atom, acceptor molecule, acceptor atom, score
      P1  H 17178 17198       L1    11  0.41
      L1  H     8    22       P1 26924  0.05

> <Gold.Goldscore.Internal.Vdw.Weighted>
-0.3994

> <Gold.Goldscore.Internal.Torsion.Weighted>
-0.4571

> <Gold.Goldscore.External.Vdw.Weighted>
37.6901

> <Gold.Goldscore.Internal.HBond.Weighted>
0.0000

> <Gold.Goldscore.External.HBond.Weighted>
1.1102

> <Gold.Goldscore.Internal.Correction.Weighted>
-0.7693

> <Gold.Rescore>
     Score     S(PLP)   S(hbond)     S(cho)   S(metal)  DE(clash)   DE(tors)     intcor
     35.46     -32.84       1.00       0.00       0.00       0.00       0.19       ----

> <Gold.PLP.Fitness>
35.4649

> <Gold.PLP.PLP>
-32.8421

> <Gold.PLP.part.hbond>
-1.1959

> <Gold.PLP.part.metal>
0.0000

> <Gold.PLP.part.buried>
6.0692

> <Gold.PLP.part.nonpolar>
-44.6595

> <Gold.PLP.part.repulsive>
5.0189

> <Gold.PLP.ligand.clash>
0.0000

> <Gold.PLP.ligand.torsion>
0.1886

> <Gold.PLP.Chemscore.Hbond>
1.0000

> <Gold.PLP.Chemscore.CHOScore>
0.0000

> <Gold.PLP.Chemscore.Metal>
0.0000

> <Gold.Chemscore.Hbonds>
donor molecule, donor type, donor heavy atom, donor atom, acceptor molecule, acceptor atom, score
      L1  H     8    22       P1 26924  0.60

> <Gold.PLP.Chemscore.Internal.Correction>
   9.000000E+99

#       Name:                CT1002167954
#       Creating user name   hitesit
#       Creation time:       Sun Apr 16 23:04:49 2023


#       File generated by GOLD software.
#

@<TRIPOS>MOLECULE
CT1002167954|ligand_prepared|mol2|1|dock5
    29    30     1
SMALL
NO_CHARGES


@<TRIPOS>ATOM
      1 C1         250.3169   7.6769  36.2261 C.3            1 RES1               0.0000
      2 C2         249.9098   8.8165  37.1823 C.ar           1 RES1               0.0000
      3 C3         251.1207   8.3261  35.1034 C.2            1 RES1               0.0000
      4 C4         251.1106   6.6803  37.0637 C.2            1 RES1               0.0000
      5 C5         249.1173   6.9271  35.6013 C.3            1 RES1               0.0000
      6 C6         250.7462   9.1974  38.2274 C.ar           1 RES1               0.0000
      7 C7         248.7046   9.4969  37.0306 C.ar           1 RES1               0.0000
      8 N8         252.4707   8.1327  35.0994 N.am           1 RES1               0.0000
      9 O9         250.5832   9.0297  34.2570 O.2            1 RES1               0.0000
     10 N10        252.4384   6.5096  36.7710 N.am           1 RES1               0.0000
     11 O11        250.6023   6.0537  37.9852 O.2            1 RES1               0.0000
     12 C12        249.4950   5.6139  34.9342 C.3            1 RES1               0.0000
     13 C13        250.3919  10.2232  39.0879 C.ar           1 RES1               0.0000
     14 C14        248.3521  10.5224  37.8924 C.ar           1 RES1               0.0000
     15 C15        253.1617   7.2132  35.8469 C.2            1 RES1               0.0000
     16 C16        249.1950  10.8867  38.9208 C.ar           1 RES1               0.0000
     17 O17        254.3655   7.0406  35.6790 O.2            1 RES1               0.0000
     18 H18        248.3793   6.7244  36.3873 H              1 RES1               0.0000
     19 H19        248.6433   7.5780  34.8562 H              1 RES1               0.0000
     20 H20        251.6909   8.6852  38.3760 H              1 RES1               0.0000
     21 H21        248.0253   9.2267  36.2292 H              1 RES1               0.0000
     22 H22        253.0170   8.7266  34.4837 H              1 RES1               0.0000
     23 H23        252.9335   5.7914  37.2901 H              1 RES1               0.0000
     24 H24        248.6172   5.1290  34.5125 H              1 RES1               0.0000
     25 H25        250.2089   5.7810  34.1304 H              1 RES1               0.0000
     26 H26        249.9465   4.9325  35.6523 H              1 RES1               0.0000
     27 H27        251.0582  10.5052  39.8965 H              1 RES1               0.0000
     28 H28        247.4089  11.0414  37.7575 H              1 RES1               0.0000
     29 H29        248.9179  11.6905  39.5948 H              1 RES1               0.0000
@<TRIPOS>BOND
    1    1    2 1     
    2    1    3 1     
    3    1    4 1     
    4    1    5 1     
    5    2    6 ar    
    6    2    7 ar    
    7    3    8 1     
    8    3    9 2     
    9    4   10 1     
   10    4   11 2     
   11    5   12 1     
   12    5   18 1     
   13    5   19 1     
   14    6   13 ar    
   15    6   20 1     
   16    7   14 ar    
   17    7   21 1     
   18    8   15 1     
   19    8   22 1     
   20   10   15 1     
   21   10   23 1     
   22   12   24 1     
   23   12   25 1     
   24   12   26 1     
   25   13   16 ar    
   26   13   27 1     
   27   14   16 ar    
   28   14   28 1     
   29   15   17 2     
   30   16   29 1     
@<TRIPOS>SUBSTRUCTURE
      1 RES1           1
@<TRIPOS>SET
DONOR_HYDROGENS      STATIC     ATOMS    <user>   **** ""
2 22 23
ATOM$RED        STATIC     ATOMS    COLORGROUP SYSTEM
2 22 23
@<TRIPOS>COMMENT
> <Gold.Version>
2022.3.0

> <Gold.Id.Protein>
unknown|4v3u_clean|pdb

> <Gold.Protein.RotatedTorsions>
[  576  535  534  533 ] final  169.57 input   59.97 | X-H torsion
[ 2566 2531 2532 2533 ] final    5.83 input  112.83 | X-H torsion
[ 2636 2605 2606 2607 ] final  104.59 input   41.41 | X-H torsion
[ 26091 26055 26054 26052 ] final   25.08 input   60.03 | X-H torsion
[ 27195 27136 27135 27131 ] final   -3.14 input   60.01 | X-H torsion
[  728  681  682  683 ] final -136.67 input  102.19 | X-H torsion
[ 7435 7417 7418 7419 ] final   58.02 input   81.33 | X-H torsion
[ 7494 7460 7461 7462 ] final  -37.32 input  103.22 | X-H torsion
[ 7528 7515 7516 7517 ] final   67.71 input   88.53 | X-H torsion
[ 17198 17178 17179 17180 ] final  136.49 input   47.40 | X-H torsion
[ 17258 17224 17225 17226 ] final  -62.78 input  102.98 | X-H torsion
[ 18298 18277 18278 18279 ] final -158.92 input   30.52 | X-H torsion
[ 18328 18315 18316 18317 ] final  147.05 input   53.77 | X-H torsion
[ 18417 18373 18374 18375 ] final    3.57 input   42.60 | X-H torsion
[ 18502 18463 18464 18465 ] final   41.26 input  104.04 | X-H torsion
[ 18570 18535 18536 18537 ] final  123.70 input   89.36 | X-H torsion
[ 18510 18474 18473 18471 ] final  -68.72 input   60.01 | X-H torsion
[ 17306 17285 17286 17287 ] final -118.85 input   49.80 | X-H torsion
[ 18250 18212 18213 18214 ] final   81.95 input   46.53 | X-H torsion
[ 18302 18282 18281 18278 ] final   84.84 input   59.98 | X-H torsion
[ 10118 10098 10097 10094 ] final  -92.97 input   59.98 | X-H torsion
[ 17002 16966 16965 16963 ] final   62.23 input   59.99 | X-H torsion
[ 11499 11466 11467 11468 ] final  -13.73 input   46.07 | X-H torsion
[ 11572 11531 11532 11533 ] final  164.93 input  118.20 | X-H torsion
[ 11648 11607 11608 11609 ] final  127.05 input   50.96 | X-H torsion
[ 11438 11418 11417 11414 ] final -123.73 input   60.01 | X-H torsion
[ 27199 27138 27137 27135 ] final   23.94 input   60.02 | X-H torsion
[ 19310 19290 19289 19286 ] final -142.39 input   60.00 | X-H torsion
[ 10154 10134 10135 10136 ] final  134.21 input   25.69 | X-H torsion
[ 17361 17335 17336 17337 ] final -120.56 input   65.66 | X-H torsion
[ 27200  684  683  682 ] final -154.31 input    0.00 | X-H torsion
[ 27203 2534 2533 2532 ] final -140.80 input    0.00 | X-H torsion
[ 27226 7339 7338 7337 ] final -175.37 input    0.00 | X-H torsion
[ 27232 17131 17130 17129 ] final  -77.45 input    0.00 | X-H torsion
[ 27236 18215 18214 18213 ] final   52.64 input    0.00 | X-H torsion
[ 27239 18280 18279 18278 ] final  -95.64 input    0.00 | X-H torsion
[ 27242 18318 18317 18316 ] final -108.78 input    0.00 | X-H torsion
[ 27245 18376 18375 18374 ] final  134.74 input   -0.00 | X-H torsion
[ 27253 17181 17180 17179 ] final -152.36 input    0.00 | X-H torsion
[ 27255 17058 17057 17056 ] final -127.83 input    0.00 | X-H torsion
[ 27257 17227 17226 17225 ] final  -95.16 input   -0.00 | X-H torsion
[ 27267 10137 10136 10135 ] final   38.67 input    0.00 | X-H torsion
[ 27269 11416 11415 11414 ] final  104.81 input    0.00 | X-H torsion
[ 27275 11610 11609 11608 ] final  -44.71 input    0.00 | X-H torsion
[ 27284 18693 18692 18691 ] final  -36.60 input    0.00 | X-H torsion

> <Gold.Protein.ActiveResidues>
 LYS309  TRP311  GLU314  MET341  HIS342  TRP414  ALA417  ARG419  CYS420  VAL421 
 GLY422  ARG423  SER462  ALA463  SER482  GLN483  LEU484  ILE485  ARG486  ALA502 
 TRP566  TYR567  LEU569  PRO570  ALA571  VAL572  SER573  ASN574  MET575  PHE589 
 SER590  GLY591  TRP592  TYR593  MET594  GLU597  ILE598  ARG601  ASP602  ASP605 
 SER607  ARG608  TRP683  HIS697  GLU699  TYR711  HEM750  H4B760 

> <Gold.Protein.RotatedAtoms>
  247.7314   25.1102   41.4233 H   0  0  0  0  0  0  0  0  0  0  0  0  # atno 576  bound_to 535 
  246.2317   25.1881   42.1256 H   0  0  0  0  0  0  0  0  0  0  0  0  # atno 577  bound_to 535 
  246.6099   23.9292   41.1164 H   0  0  0  0  0  0  0  0  0  0  0  0  # atno 578  bound_to 535 
  244.9139   25.3342   35.1541 H   0  0  0  0  0  0  0  0  0  0  0  0  # atno 728  bound_to 681 
  238.6551   19.9850   38.8791 H   0  0  0  0  0  0  0  0  0  0  0  0  # atno 2566 bound_to 2531
  240.2444   19.5601   40.6862 H   0  0  0  0  0  0  0  0  0  0  0  0  # atno 2636 bound_to 2605
  239.3327    5.5585   35.6662 H   0  0  0  0  0  0  0  0  0  0  0  0  # atno 7435 bound_to 7417
  241.3555    3.8328   33.3756 H   0  0  0  0  0  0  0  0  0  0  0  0  # atno 7494 bound_to 7460
  242.1725    2.3231   33.1613 H   0  0  0  0  0  0  0  0  0  0  0  0  # atno 7528 bound_to 7515
  247.8036   -3.4601   36.3623 H   0  0  0  0  0  0  0  0  0  0  0  0  # atno 10118 bound_to 10098
  250.7014   -4.4713   39.8018 H   0  0  0  0  0  0  0  0  0  0  0  0  # atno 10154 bound_to 10134
  254.7923   13.5784   42.0660 H   0  0  0  0  0  0  0  0  0  0  0  0  # atno 11438 bound_to 11418
  255.1789    9.9479   43.4560 H   0  0  0  0  0  0  0  0  0  0  0  0  # atno 11499 bound_to 11466
  255.1526    6.1196   42.7958 H   0  0  0  0  0  0  0  0  0  0  0  0  # atno 11572 bound_to 11531
  258.0099    5.3591   40.9088 H   0  0  0  0  0  0  0  0  0  0  0  0  # atno 11648 bound_to 11607
  256.3937    8.8172   36.8421 H   0  0  0  0  0  0  0  0  0  0  0  0  # atno 17002 bound_to 16966
  254.4584    3.7806   38.2555 H   0  0  0  0  0  0  0  0  0  0  0  0  # atno 17198 bound_to 17178
  252.3755    5.0174   41.0174 H   0  0  0  0  0  0  0  0  0  0  0  0  # atno 17258 bound_to 17224
  250.9712    6.2834   43.5174 H   0  0  0  0  0  0  0  0  0  0  0  0  # atno 17306 bound_to 17285
  251.1932    7.9838   46.3182 H   0  0  0  0  0  0  0  0  0  0  0  0  # atno 17361 bound_to 17335
  249.7684    2.9008   44.0146 H   0  0  0  0  0  0  0  0  0  0  0  0  # atno 18250 bound_to 18212
  250.5545    0.9723   41.5130 H   0  0  0  0  0  0  0  0  0  0  0  0  # atno 18298 bound_to 18277
  252.7984   -1.8328   39.0506 H   0  0  0  0  0  0  0  0  0  0  0  0  # atno 18302 bound_to 18282
  249.6623    0.4079   37.8481 H   0  0  0  0  0  0  0  0  0  0  0  0  # atno 18328 bound_to 18315
  249.6115    0.0190   33.9368 H   0  0  0  0  0  0  0  0  0  0  0  0  # atno 18417 bound_to 18373
  252.0989    0.7878   30.7576 H   0  0  0  0  0  0  0  0  0  0  0  0  # atno 18502 bound_to 18463
  255.2067    8.3017   33.1581 H   0  0  0  0  0  0  0  0  0  0  0  0  # atno 18510 bound_to 18474
  249.3639    3.8333   29.9638 H   0  0  0  0  0  0  0  0  0  0  0  0  # atno 18570 bound_to 18535
  251.7737   22.3571   33.3387 H   0  0  0  0  0  0  0  0  0  0  0  0  # atno 19310 bound_to 19290
  243.1910   12.2134   39.7499 H   0  0  0  0  0  0  0  0  0  0  0  0  # atno 26091 bound_to 26055
  243.7080   18.9106   31.4968 H   0  0  0  0  0  0  0  0  0  0  0  0  # atno 27195 bound_to 27136
  240.6624   18.6414   34.5611 H   0  0  0  0  0  0  0  0  0  0  0  0  # atno 27199 bound_to 27138
  249.9200   24.1483   34.9074 LP  0  0  0  0  0  0  0  0  0  0  0  0  # atno 27200 bound_to 684 
  248.9239   22.9761   35.7036 LP  0  0  0  0  0  0  0  0  0  0  0  0  # atno 27201 bound_to 684 
  239.3745   19.9534   37.2869 LP  0  0  0  0  0  0  0  0  0  0  0  0  # atno 27202 bound_to 2531
  239.2265   16.3794   40.9062 LP  0  0  0  0  0  0  0  0  0  0  0  0  # atno 27203 bound_to 2534
  240.6526   16.2300   39.9347 LP  0  0  0  0  0  0  0  0  0  0  0  0  # atno 27204 bound_to 2534
  238.9206   18.5195   40.2168 LP  0  0  0  0  0  0  0  0  0  0  0  0  # atno 27205 bound_to 2605
  242.7971   13.7819   39.5725 LP  0  0  0  0  0  0  0  0  0  0  0  0  # atno 27209 bound_to 26055
  241.6308   12.6678   39.8277 LP  0  0  0  0  0  0  0  0  0  0  0  0  # atno 27210 bound_to 26055
  244.0031   20.1132   32.5531 LP  0  0  0  0  0  0  0  0  0  0  0  0  # atno 27213 bound_to 27136
  242.7713   20.2416   31.4888 LP  0  0  0  0  0  0  0  0  0  0  0  0  # atno 27214 bound_to 27136
  245.5057   24.9234   33.5665 LP  0  0  0  0  0  0  0  0  0  0  0  0  # atno 27215 bound_to 681 
  241.8625    6.9994   33.8923 LP  0  0  0  0  0  0  0  0  0  0  0  0  # atno 27226 bound_to 7339
  241.3081    8.6101   34.2061 LP  0  0  0  0  0  0  0  0  0  0  0  0  # atno 27227 bound_to 7339
  240.4755    6.8595   35.4491 LP  0  0  0  0  0  0  0  0  0  0  0  0  # atno 27228 bound_to 7417
  241.7286    5.3041   32.5041 LP  0  0  0  0  0  0  0  0  0  0  0  0  # atno 27229 bound_to 7460
  241.9936    2.2075   31.4253 LP  0  0  0  0  0  0  0  0  0  0  0  0  # atno 27230 bound_to 7515
  251.4010    2.8771   37.3128 LP  0  0  0  0  0  0  0  0  0  0  0  0  # atno 27232 bound_to 17131
  252.5600    1.7695   37.9684 LP  0  0  0  0  0  0  0  0  0  0  0  0  # atno 27233 bound_to 17131
  253.1114    4.8763   38.0645 LP  0  0  0  0  0  0  0  0  0  0  0  0  # atno 27234 bound_to 17178
  250.7895    4.6772   40.3605 LP  0  0  0  0  0  0  0  0  0  0  0  0  # atno 27235 bound_to 17224
  251.4498    2.8538   41.9803 LP  0  0  0  0  0  0  0  0  0  0  0  0  # atno 27236 bound_to 18215
  250.4950    2.8187   40.5355 LP  0  0  0  0  0  0  0  0  0  0  0  0  # atno 27237 bound_to 18215
  249.9392   -0.5998   41.0646 LP  0  0  0  0  0  0  0  0  0  0  0  0  # atno 27238 bound_to 18277
  250.5760   -2.4956   38.7357 LP  0  0  0  0  0  0  0  0  0  0  0  0  # atno 27239 bound_to 18280
  249.0916   -1.7738   39.2605 LP  0  0  0  0  0  0  0  0  0  0  0  0  # atno 27240 bound_to 18280
  251.3165   -0.0323   37.4824 LP  0  0  0  0  0  0  0  0  0  0  0  0  # atno 27241 bound_to 18315
  252.7776   -0.4245   35.3065 LP  0  0  0  0  0  0  0  0  0  0  0  0  # atno 27242 bound_to 18318
  252.3361   -2.0904   35.4796 LP  0  0  0  0  0  0  0  0  0  0  0  0  # atno 27243 bound_to 18318
  250.6661   -1.2577   34.4857 LP  0  0  0  0  0  0  0  0  0  0  0  0  # atno 27244 bound_to 18373
  249.6420    2.4355   32.2834 LP  0  0  0  0  0  0  0  0  0  0  0  0  # atno 27245 bound_to 18376
  249.0643    0.8111   32.1176 LP  0  0  0  0  0  0  0  0  0  0  0  0  # atno 27246 bound_to 18376
  251.8808    1.5990   32.2950 LP  0  0  0  0  0  0  0  0  0  0  0  0  # atno 27247 bound_to 18463
  250.9001    3.4144   29.2428 LP  0  0  0  0  0  0  0  0  0  0  0  0  # atno 27248 bound_to 18535
  253.3330    6.3713   42.0366 LP  0  0  0  0  0  0  0  0  0  0  0  0  # atno 27253 bound_to 17181
  254.4080    5.9558   40.7437 LP  0  0  0  0  0  0  0  0  0  0  0  0  # atno 27254 bound_to 17181
  256.1715    3.9109   37.7797 LP  0  0  0  0  0  0  0  0  0  0  0  0  # atno 27255 bound_to 17058
  257.4856    4.0238   36.6570 LP  0  0  0  0  0  0  0  0  0  0  0  0  # atno 27256 bound_to 17058
  249.7555    4.8037   44.1550 LP  0  0  0  0  0  0  0  0  0  0  0  0  # atno 27257 bound_to 17227
  251.2867    4.1317   43.7036 LP  0  0  0  0  0  0  0  0  0  0  0  0  # atno 27258 bound_to 17227
  255.8965    7.1602   34.0904 LP  0  0  0  0  0  0  0  0  0  0  0  0  # atno 27259 bound_to 18474
  254.3658    7.6455   34.3870 LP  0  0  0  0  0  0  0  0  0  0  0  0  # atno 27260 bound_to 18474
  251.8415    7.7931   43.6177 LP  0  0  0  0  0  0  0  0  0  0  0  0  # atno 27261 bound_to 17285
  250.9957    1.8082   44.6063 LP  0  0  0  0  0  0  0  0  0  0  0  0  # atno 27262 bound_to 18212
  252.0927   -1.6564   40.5059 LP  0  0  0  0  0  0  0  0  0  0  0  0  # atno 27263 bound_to 18282
  253.7003   -1.4219   40.3409 LP  0  0  0  0  0  0  0  0  0  0  0  0  # atno 27264 bound_to 18282
  247.1575   -4.9219   36.0559 LP  0  0  0  0  0  0  0  0  0  0  0  0  # atno 27265 bound_to 10098
  248.7703   -4.6970   35.9335 LP  0  0  0  0  0  0  0  0  0  0  0  0  # atno 27266 bound_to 10098
  249.4865   -1.9077   41.3293 LP  0  0  0  0  0  0  0  0  0  0  0  0  # atno 27267 bound_to 10137
  250.1880   -1.2968   42.7904 LP  0  0  0  0  0  0  0  0  0  0  0  0  # atno 27268 bound_to 10137
  251.9185    9.6498   42.1173 LP  0  0  0  0  0  0  0  0  0  0  0  0  # atno 27269 bound_to 11416
  251.9875    9.0606   43.7445 LP  0  0  0  0  0  0  0  0  0  0  0  0  # atno 27270 bound_to 11416
  255.9792    8.8774   35.2697 LP  0  0  0  0  0  0  0  0  0  0  0  0  # atno 27271 bound_to 16966
  257.0832    9.9221   35.8666 LP  0  0  0  0  0  0  0  0  0  0  0  0  # atno 27272 bound_to 16966
  253.9539   10.3934   42.2868 LP  0  0  0  0  0  0  0  0  0  0  0  0  # atno 27273 bound_to 11466
  256.1877    7.2265   41.9264 LP  0  0  0  0  0  0  0  0  0  0  0  0  # atno 27274 bound_to 11531
  258.2573    7.0835   37.8228 LP  0  0  0  0  0  0  0  0  0  0  0  0  # atno 27275 bound_to 11610
  257.6585    8.6088   38.3839 LP  0  0  0  0  0  0  0  0  0  0  0  0  # atno 27276 bound_to 11610
  257.9626    6.9844   41.5484 LP  0  0  0  0  0  0  0  0  0  0  0  0  # atno 27279 bound_to 11607
  253.8081   12.6498   41.1623 LP  0  0  0  0  0  0  0  0  0  0  0  0  # atno 27282 bound_to 11418
  254.9300   11.9583   42.1264 LP  0  0  0  0  0  0  0  0  0  0  0  0  # atno 27283 bound_to 11418
  251.7750   12.0005   29.5462 LP  0  0  0  0  0  0  0  0  0  0  0  0  # atno 27284 bound_to 18693
  253.3235   11.3608   29.9855 LP  0  0  0  0  0  0  0  0  0  0  0  0  # atno 27285 bound_to 18693

> <Gold.Score>
     Fitness  S(hb_ext) S(vdw_ext)  S(hb_int)    S(int)      intcor
     38.23       5.99      23.75       0.00      -0.41      -0.77

> <Gold.Goldscore.Fitness>
38.2348

> <Gold.Goldscore.Internal.Vdw>
-0.5227

> <Gold.Goldscore.Internal.Torsion>
-0.6592

> <Gold.Goldscore.External.Vdw>
23.7513

> <Gold.Goldscore.Internal.HBond>
0.0000

> <Gold.Goldscore.External.HBond>
5.9894

> <Gold.Goldscore.Internal.Correction>
-0.7693

> <Gold.Goldscore.Hbonds>
donor molecule, donor type, donor heavy atom, donor atom, acceptor molecule, acceptor atom, score
      L1  H    10    23       P1 17178  1.00

> <Gold.Goldscore.Internal.Vdw.Weighted>
-0.5227

> <Gold.Goldscore.Internal.Torsion.Weighted>
-0.6592

> <Gold.Goldscore.External.Vdw.Weighted>
32.6581

> <Gold.Goldscore.Internal.HBond.Weighted>
0.0000

> <Gold.Goldscore.External.HBond.Weighted>
5.9894

> <Gold.Goldscore.Internal.Correction.Weighted>
-0.7693

> <Gold.Rescore>
     Score     S(PLP)   S(hbond)     S(cho)   S(metal)  DE(clash)   DE(tors)     intcor
     10.03      -8.43       0.93       0.00       0.00       0.00       0.59       ----

> <Gold.PLP.Fitness>
10.0263

> <Gold.PLP.PLP>
-8.4277

> <Gold.PLP.part.hbond>
-5.3701

> <Gold.PLP.part.metal>
0.0000

> <Gold.PLP.part.buried>
16.9415

> <Gold.PLP.part.nonpolar>
-31.1961

> <Gold.PLP.part.repulsive>
8.9264

> <Gold.PLP.ligand.clash>
0.0000

> <Gold.PLP.ligand.torsion>
0.5901

> <Gold.PLP.Chemscore.Hbond>
0.9263

> <Gold.PLP.Chemscore.CHOScore>
0.0000

> <Gold.PLP.Chemscore.Metal>
0.0000

> <Gold.Chemscore.Hbonds>
donor molecule, donor type, donor heavy atom, donor atom, acceptor molecule, acceptor atom, score
      L1  H    10    23       P1 17178  0.81

> <Gold.PLP.Chemscore.Internal.Correction>
   9.000000E+99

#       Name:                CT1002167954
#       Creating user name   hitesit
#       Creation time:       Sun Apr 16 23:04:47 2023


#       File generated by GOLD software.
#

@<TRIPOS>MOLECULE
CT1002167954|ligand_prepared|mol2|1|dock3
    29    30     1
SMALL
NO_CHARGES


@<TRIPOS>ATOM
      1 C1         250.7060  10.8326  34.3861 C.3            1 RES1               0.0000
      2 C2         250.0012  10.3695  35.6774 C.ar           1 RES1               0.0000
      3 C3         251.2863  12.2117  34.6856 C.2            1 RES1               0.0000
      4 C4         251.7544   9.7721  34.0685 C.2            1 RES1               0.0000
      5 C5         249.7619  10.9511  33.1671 C.3            1 RES1               0.0000
      6 C6         249.2589   9.1925  35.6965 C.ar           1 RES1               0.0000
      7 C7         250.0863  11.1059  36.8560 C.ar           1 RES1               0.0000
      8 N8         252.6360  12.3056  34.8568 N.am           1 RES1               0.0000
      9 O9         250.5663  13.1948  34.8089 O.2            1 RES1               0.0000
     10 N10        253.0744  10.1345  34.1330 N.am           1 RES1               0.0000
     11 O11        251.4499   8.6215  33.7792 O.2            1 RES1               0.0000
     12 C12        250.4180  11.5661  31.9409 C.3            1 RES1               0.0000
     13 C13        248.6269   8.7656  36.8527 C.ar           1 RES1               0.0000
     14 C14        249.4533  10.6773  38.0110 C.ar           1 RES1               0.0000
     15 C15        253.5635  11.3450  34.5427 C.2            1 RES1               0.0000
     16 C16        248.7240   9.5074  38.0107 C.ar           1 RES1               0.0000
     17 O17        254.7659  11.5780  34.6264 O.2            1 RES1               0.0000
     18 H18        249.3942   9.9510  32.9066 H              1 RES1               0.0000
     19 H19        248.8965  11.5636  33.4489 H              1 RES1               0.0000
     20 H20        249.1691   8.5969  34.7942 H              1 RES1               0.0000
     21 H21        250.6538  12.0301  36.8794 H              1 RES1               0.0000
     22 H22        252.9884  13.1701  35.2553 H              1 RES1               0.0000
     23 H23        253.7555   9.4374  33.8492 H              1 RES1               0.0000
     24 H24        249.7123  11.6261  31.1150 H              1 RES1               0.0000
     25 H25        250.7731  12.5716  32.1568 H              1 RES1               0.0000
     26 H26        251.2679  10.9686  31.6177 H              1 RES1               0.0000
     27 H27        248.0529   7.8449  36.8468 H              1 RES1               0.0000
     28 H28        249.5320  11.2646  38.9200 H              1 RES1               0.0000
     29 H29        248.2291   9.1725  38.9163 H              1 RES1               0.0000
@<TRIPOS>BOND
    1    1    2 1     
    2    1    3 1     
    3    1    4 1     
    4    1    5 1     
    5    2    6 ar    
    6    2    7 ar    
    7    3    8 1     
    8    3    9 2     
    9    4   10 1     
   10    4   11 2     
   11    5   12 1     
   12    5   18 1     
   13    5   19 1     
   14    6   13 ar    
   15    6   20 1     
   16    7   14 ar    
   17    7   21 1     
   18    8   15 1     
   19    8   22 1     
   20   10   15 1     
   21   10   23 1     
   22   12   24 1     
   23   12   25 1     
   24   12   26 1     
   25   13   16 ar    
   26   13   27 1     
   27   14   16 ar    
   28   14   28 1     
   29   15   17 2     
   30   16   29 1     
@<TRIPOS>SUBSTRUCTURE
      1 RES1           1
@<TRIPOS>SET
DONOR_HYDROGENS      STATIC     ATOMS    <user>   **** ""
2 22 23
ATOM$RED        STATIC     ATOMS    COLORGROUP SYSTEM
2 22 23
@<TRIPOS>COMMENT
> <Gold.Version>
2022.3.0

> <Gold.Id.Protein>
unknown|4v3u_clean|pdb

> <Gold.Protein.RotatedTorsions>
[  576  535  534  533 ] final  171.76 input   59.97 | X-H torsion
[ 2566 2531 2532 2533 ] final   23.17 input  112.83 | X-H torsion
[ 2636 2605 2606 2607 ] final    9.75 input   41.41 | X-H torsion
[ 26091 26055 26054 26052 ] final   43.12 input   60.03 | X-H torsion
[ 27195 27136 27135 27131 ] final  -83.42 input   60.01 | X-H torsion
[  728  681  682  683 ] final -143.84 input  102.19 | X-H torsion
[ 7435 7417 7418 7419 ] final -146.13 input   81.33 | X-H torsion
[ 7494 7460 7461 7462 ] final -155.27 input  103.22 | X-H torsion
[ 7528 7515 7516 7517 ] final  -74.03 input   88.53 | X-H torsion
[ 17198 17178 17179 17180 ] final   81.20 input   47.40 | X-H torsion
[ 17258 17224 17225 17226 ] final  174.52 input  102.98 | X-H torsion
[ 18298 18277 18278 18279 ] final  125.87 input   30.52 | X-H torsion
[ 18328 18315 18316 18317 ] final  -19.78 input   53.77 | X-H torsion
[ 18417 18373 18374 18375 ] final  -29.70 input   42.60 | X-H torsion
[ 18502 18463 18464 18465 ] final  -87.79 input  104.04 | X-H torsion
[ 18570 18535 18536 18537 ] final  158.12 input   89.36 | X-H torsion
[ 18510 18474 18473 18471 ] final -109.73 input   60.01 | X-H torsion
[ 17306 17285 17286 17287 ] final   91.74 input   49.80 | X-H torsion
[ 18250 18212 18213 18214 ] final  122.23 input   46.53 | X-H torsion
[ 18302 18282 18281 18278 ] final  -78.87 input   59.98 | X-H torsion
[ 10118 10098 10097 10094 ] final  119.54 input   59.98 | X-H torsion
[ 17002 16966 16965 16963 ] final  129.64 input   59.99 | X-H torsion
[ 11499 11466 11467 11468 ] final  147.94 input   46.07 | X-H torsion
[ 11572 11531 11532 11533 ] final   57.91 input  118.20 | X-H torsion
[ 11648 11607 11608 11609 ] final -101.28 input   50.96 | X-H torsion
[ 11438 11418 11417 11414 ] final   66.85 input   60.01 | X-H torsion
[ 27199 27138 27137 27135 ] final  -61.77 input   60.02 | X-H torsion
[ 19310 19290 19289 19286 ] final   -8.19 input   60.00 | X-H torsion
[ 10154 10134 10135 10136 ] final -169.19 input   25.69 | X-H torsion
[ 17361 17335 17336 17337 ] final   32.08 input   65.66 | X-H torsion
[ 27200  684  683  682 ] final    3.72 input    0.00 | X-H torsion
[ 27203 2534 2533 2532 ] final  -25.11 input    0.00 | X-H torsion
[ 27226 7339 7338 7337 ] final   46.19 input    0.00 | X-H torsion
[ 27232 17131 17130 17129 ] final  -23.70 input    0.00 | X-H torsion
[ 27236 18215 18214 18213 ] final   31.57 input    0.00 | X-H torsion
[ 27239 18280 18279 18278 ] final  -21.16 input    0.00 | X-H torsion
[ 27242 18318 18317 18316 ] final  112.84 input    0.00 | X-H torsion
[ 27245 18376 18375 18374 ] final    4.93 input   -0.00 | X-H torsion
[ 27253 17181 17180 17179 ] final  103.72 input    0.00 | X-H torsion
[ 27255 17058 17057 17056 ] final -126.53 input    0.00 | X-H torsion
[ 27257 17227 17226 17225 ] final -150.67 input   -0.00 | X-H torsion
[ 27267 10137 10136 10135 ] final -108.82 input    0.00 | X-H torsion
[ 27269 11416 11415 11414 ] final   33.37 input    0.00 | X-H torsion
[ 27275 11610 11609 11608 ] final  -53.05 input    0.00 | X-H torsion
[ 27284 18693 18692 18691 ] final  163.31 input    0.00 | X-H torsion

> <Gold.Protein.ActiveResidues>
 LYS309  TRP311  GLU314  MET341  HIS342  TRP414  ALA417  ARG419  CYS420  VAL421 
 GLY422  ARG423  SER462  ALA463  SER482  GLN483  LEU484  ILE485  ARG486  ALA502 
 TRP566  TYR567  LEU569  PRO570  ALA571  VAL572  SER573  ASN574  MET575  PHE589 
 SER590  GLY591  TRP592  TYR593  MET594  GLU597  ILE598  ARG601  ASP602  ASP605 
 SER607  ARG608  TRP683  HIS697  GLU699  TYR711  HEM750  H4B760 

> <Gold.Protein.RotatedAtoms>
  247.7224   25.1378   41.4457 H   0  0  0  0  0  0  0  0  0  0  0  0  # atno 576  bound_to 535 
  246.2074   25.1617   42.1183 H   0  0  0  0  0  0  0  0  0  0  0  0  # atno 577  bound_to 535 
  246.6432   23.9281   41.1012 H   0  0  0  0  0  0  0  0  0  0  0  0  # atno 578  bound_to 535 
  244.8507   25.2452   35.1460 H   0  0  0  0  0  0  0  0  0  0  0  0  # atno 728  bound_to 681 
  238.8529   20.1584   38.9210 H   0  0  0  0  0  0  0  0  0  0  0  0  # atno 2566 bound_to 2531
  238.9574   19.6641   40.5128 H   0  0  0  0  0  0  0  0  0  0  0  0  # atno 2636 bound_to 2605
  240.5523    6.7638   35.7933 H   0  0  0  0  0  0  0  0  0  0  0  0  # atno 7435 bound_to 7417
  240.8852    5.1606   32.7919 H   0  0  0  0  0  0  0  0  0  0  0  0  # atno 7494 bound_to 7460
  241.5159    1.9897   31.6566 H   0  0  0  0  0  0  0  0  0  0  0  0  # atno 7528 bound_to 7515
  247.5035   -5.1845   35.9521 H   0  0  0  0  0  0  0  0  0  0  0  0  # atno 10118 bound_to 10098
  250.0122   -4.9468   39.8012 H   0  0  0  0  0  0  0  0  0  0  0  0  # atno 10154 bound_to 10134
  254.1140   11.9706   41.4107 H   0  0  0  0  0  0  0  0  0  0  0  0  # atno 11438 bound_to 11418
  254.1648   10.4679   42.1150 H   0  0  0  0  0  0  0  0  0  0  0  0  # atno 11499 bound_to 11466
  255.8078    6.3334   41.5549 H   0  0  0  0  0  0  0  0  0  0  0  0  # atno 11572 bound_to 11531
  258.3796    6.5475   41.9319 H   0  0  0  0  0  0  0  0  0  0  0  0  # atno 11648 bound_to 11607
  257.0350    9.6081   36.6360 H   0  0  0  0  0  0  0  0  0  0  0  0  # atno 17002 bound_to 16966
  254.5622    4.5565   38.4974 H   0  0  0  0  0  0  0  0  0  0  0  0  # atno 17198 bound_to 17178
  251.2548    5.2474   39.9564 H   0  0  0  0  0  0  0  0  0  0  0  0  # atno 17258 bound_to 17224
  252.1618    7.4930   43.4778 H   0  0  0  0  0  0  0  0  0  0  0  0  # atno 17306 bound_to 17285
  249.9432    8.2759   45.1782 H   0  0  0  0  0  0  0  0  0  0  0  0  # atno 17361 bound_to 17335
  249.5484    2.5671   44.4715 H   0  0  0  0  0  0  0  0  0  0  0  0  # atno 18250 bound_to 18212
  251.0331    0.0168   41.6462 H   0  0  0  0  0  0  0  0  0  0  0  0  # atno 18298 bound_to 18277
  252.6673   -1.4845   40.8657 H   0  0  0  0  0  0  0  0  0  0  0  0  # atno 18302 bound_to 18282
  251.3306    0.1160   37.3436 H   0  0  0  0  0  0  0  0  0  0  0  0  # atno 18328 bound_to 18315
  249.9113    0.2203   34.2861 H   0  0  0  0  0  0  0  0  0  0  0  0  # atno 18417 bound_to 18373
  251.2341    1.3499   31.9963 H   0  0  0  0  0  0  0  0  0  0  0  0  # atno 18502 bound_to 18463
  255.7701    7.9723   33.2227 H   0  0  0  0  0  0  0  0  0  0  0  0  # atno 18510 bound_to 18474
  249.3507    3.3207   29.8577 H   0  0  0  0  0  0  0  0  0  0  0  0  # atno 18570 bound_to 18535
  252.9981   21.3499   32.6606 H   0  0  0  0  0  0  0  0  0  0  0  0  # atno 19310 bound_to 19290
  242.9521   12.0488   39.7936 H   0  0  0  0  0  0  0  0  0  0  0  0  # atno 26091 bound_to 26055
  244.2261   19.5377   32.3892 H   0  0  0  0  0  0  0  0  0  0  0  0  # atno 27195 bound_to 27136
  240.0648   18.0371   33.6129 H   0  0  0  0  0  0  0  0  0  0  0  0  # atno 27199 bound_to 27138
  248.9143   23.2247   35.9207 LP  0  0  0  0  0  0  0  0  0  0  0  0  # atno 27200 bound_to 684 
  249.9295   23.8997   34.6904 LP  0  0  0  0  0  0  0  0  0  0  0  0  # atno 27201 bound_to 684 
  239.1812   19.7840   37.2460 LP  0  0  0  0  0  0  0  0  0  0  0  0  # atno 27202 bound_to 2531
  239.8071   16.1110   39.5868 LP  0  0  0  0  0  0  0  0  0  0  0  0  # atno 27203 bound_to 2534
  240.0719   16.4983   41.2541 LP  0  0  0  0  0  0  0  0  0  0  0  0  # atno 27204 bound_to 2534
  240.1768   18.4180   40.3860 LP  0  0  0  0  0  0  0  0  0  0  0  0  # atno 27205 bound_to 2605
  243.0643   13.6556   39.5653 LP  0  0  0  0  0  0  0  0  0  0  0  0  # atno 27209 bound_to 26055
  241.6043   12.9598   39.7909 LP  0  0  0  0  0  0  0  0  0  0  0  0  # atno 27210 bound_to 26055
  243.0462   20.5744   31.9623 LP  0  0  0  0  0  0  0  0  0  0  0  0  # atno 27213 bound_to 27136
  243.2067   19.1492   31.1814 LP  0  0  0  0  0  0  0  0  0  0  0  0  # atno 27214 bound_to 27136
  245.5684   25.0117   33.5745 LP  0  0  0  0  0  0  0  0  0  0  0  0  # atno 27215 bound_to 681 
  241.7285    8.4396   34.6206 LP  0  0  0  0  0  0  0  0  0  0  0  0  # atno 27226 bound_to 7339
  241.4421    7.1699   33.4779 LP  0  0  0  0  0  0  0  0  0  0  0  0  # atno 27227 bound_to 7339
  239.2741    5.6721   35.3238 LP  0  0  0  0  0  0  0  0  0  0  0  0  # atno 27228 bound_to 7417
  242.1835    4.0198   33.0686 LP  0  0  0  0  0  0  0  0  0  0  0  0  # atno 27229 bound_to 7460
  242.6324    2.5318   32.8890 LP  0  0  0  0  0  0  0  0  0  0  0  0  # atno 27230 bound_to 7515
  251.8020    2.4405   36.8013 LP  0  0  0  0  0  0  0  0  0  0  0  0  # atno 27232 bound_to 17131
  252.1591    2.2061   38.4799 LP  0  0  0  0  0  0  0  0  0  0  0  0  # atno 27233 bound_to 17131
  253.0098    4.1170   37.8277 LP  0  0  0  0  0  0  0  0  0  0  0  0  # atno 27234 bound_to 17178
  251.8749    4.4544   41.3881 LP  0  0  0  0  0  0  0  0  0  0  0  0  # atno 27235 bound_to 17224
  251.1788    2.9784   42.0869 LP  0  0  0  0  0  0  0  0  0  0  0  0  # atno 27236 bound_to 18215
  250.7660    2.6941   40.4289 LP  0  0  0  0  0  0  0  0  0  0  0  0  # atno 27237 bound_to 18215
  249.4704    0.3361   40.9341 LP  0  0  0  0  0  0  0  0  0  0  0  0  # atno 27238 bound_to 18277
  250.3552   -2.1212   39.6894 LP  0  0  0  0  0  0  0  0  0  0  0  0  # atno 27239 bound_to 18280
  249.3124   -2.1482   38.3068 LP  0  0  0  0  0  0  0  0  0  0  0  0  # atno 27240 bound_to 18280
  249.7019    0.2502   37.9707 LP  0  0  0  0  0  0  0  0  0  0  0  0  # atno 27241 bound_to 18315
  252.4836   -1.9629   34.8960 LP  0  0  0  0  0  0  0  0  0  0  0  0  # atno 27242 bound_to 18318
  252.6301   -0.5521   35.8901 LP  0  0  0  0  0  0  0  0  0  0  0  0  # atno 27243 bound_to 18318
  250.3701   -1.4565   34.1407 LP  0  0  0  0  0  0  0  0  0  0  0  0  # atno 27244 bound_to 18373
  249.1980    1.0253   32.8074 LP  0  0  0  0  0  0  0  0  0  0  0  0  # atno 27245 bound_to 18376
  249.5083    2.2213   31.5937 LP  0  0  0  0  0  0  0  0  0  0  0  0  # atno 27246 bound_to 18376
  252.7128    1.0582   31.1032 LP  0  0  0  0  0  0  0  0  0  0  0  0  # atno 27247 bound_to 18463
  250.9130    3.9145   29.3463 LP  0  0  0  0  0  0  0  0  0  0  0  0  # atno 27248 bound_to 18535
  253.6760    6.7322   40.7666 LP  0  0  0  0  0  0  0  0  0  0  0  0  # atno 27253 bound_to 17181
  254.0649    5.5949   42.0137 LP  0  0  0  0  0  0  0  0  0  0  0  0  # atno 27254 bound_to 17181
  256.1812    3.8968   37.7893 LP  0  0  0  0  0  0  0  0  0  0  0  0  # atno 27255 bound_to 17058
  257.4759    4.0379   36.6474 LP  0  0  0  0  0  0  0  0  0  0  0  0  # atno 27256 bound_to 17058
  250.3558    4.8428   44.6922 LP  0  0  0  0  0  0  0  0  0  0  0  0  # atno 27257 bound_to 17227
  250.6864    4.0927   43.1664 LP  0  0  0  0  0  0  0  0  0  0  0  0  # atno 27258 bound_to 17227
  255.3960    7.0432   34.5052 LP  0  0  0  0  0  0  0  0  0  0  0  0  # atno 27259 bound_to 18474
  254.2987    8.0944   33.9071 LP  0  0  0  0  0  0  0  0  0  0  0  0  # atno 27260 bound_to 18474
  250.6706    6.6034   43.6567 LP  0  0  0  0  0  0  0  0  0  0  0  0  # atno 27261 bound_to 17285
  251.2115    2.1356   44.1581 LP  0  0  0  0  0  0  0  0  0  0  0  0  # atno 27262 bound_to 18212
  253.7500   -1.5539   39.6533 LP  0  0  0  0  0  0  0  0  0  0  0  0  # atno 27263 bound_to 18282
  252.1751   -1.8753   39.3651 LP  0  0  0  0  0  0  0  0  0  0  0  0  # atno 27264 bound_to 18282
  248.8451   -4.2672   36.0358 LP  0  0  0  0  0  0  0  0  0  0  0  0  # atno 27265 bound_to 10098
  247.3849   -3.6153   36.3667 LP  0  0  0  0  0  0  0  0  0  0  0  0  # atno 27266 bound_to 10098
  250.5586   -1.4205   42.5032 LP  0  0  0  0  0  0  0  0  0  0  0  0  # atno 27267 bound_to 10137
  249.1159   -1.7840   41.6164 LP  0  0  0  0  0  0  0  0  0  0  0  0  # atno 27268 bound_to 10137
  251.5444   10.1188   42.9314 LP  0  0  0  0  0  0  0  0  0  0  0  0  # atno 27269 bound_to 11416
  252.3616    8.5916   42.9304 LP  0  0  0  0  0  0  0  0  0  0  0  0  # atno 27270 bound_to 11416
  255.9218    8.4894   36.2398 LP  0  0  0  0  0  0  0  0  0  0  0  0  # atno 27271 bound_to 16966
  256.4947    9.5133   35.1041 LP  0  0  0  0  0  0  0  0  0  0  0  0  # atno 27272 bound_to 16966
  254.9320    9.8919   43.5800 LP  0  0  0  0  0  0  0  0  0  0  0  0  # atno 27273 bound_to 11466
  255.5462    7.0171   43.1414 LP  0  0  0  0  0  0  0  0  0  0  0  0  # atno 27274 bound_to 11531
  258.3298    7.1510   37.7449 LP  0  0  0  0  0  0  0  0  0  0  0  0  # atno 27275 bound_to 11610
  257.5861    8.5413   38.4619 LP  0  0  0  0  0  0  0  0  0  0  0  0  # atno 27276 bound_to 11610
  257.6006    5.8210   40.5469 LP  0  0  0  0  0  0  0  0  0  0  0  0  # atno 27279 bound_to 11607
  255.2168   12.6382   42.4035 LP  0  0  0  0  0  0  0  0  0  0  0  0  # atno 27282 bound_to 11418
  254.2045   13.5896   41.5453 LP  0  0  0  0  0  0  0  0  0  0  0  0  # atno 27283 bound_to 11418
  253.3887   11.4737   29.7160 LP  0  0  0  0  0  0  0  0  0  0  0  0  # atno 27284 bound_to 18693
  251.7098   11.8876   29.8158 LP  0  0  0  0  0  0  0  0  0  0  0  0  # atno 27285 bound_to 18693

> <Gold.Score>
     Fitness  S(hb_ext) S(vdw_ext)  S(hb_int)    S(int)      intcor
     37.59       5.99      24.47       0.00      -2.04      -0.79

> <Gold.Goldscore.Fitness>
37.5932

> <Gold.Goldscore.Internal.Vdw>
-2.3798

> <Gold.Goldscore.Internal.Torsion>
-0.4487

> <Gold.Goldscore.External.Vdw>
24.4698

> <Gold.Goldscore.Internal.HBond>
0.0000

> <Gold.Goldscore.External.HBond>
5.9908

> <Gold.Goldscore.Internal.Correction>
-0.7850

> <Gold.Goldscore.Hbonds>
donor molecule, donor type, donor heavy atom, donor atom, acceptor molecule, acceptor atom, score
      P1  H 11473 11505       L1    17  0.02
      P1  H 19354 19405       L1    17  0.79
      L1  H    10    23       P1 18474  0.62

> <Gold.Goldscore.Internal.Vdw.Weighted>
-2.3798

> <Gold.Goldscore.Internal.Torsion.Weighted>
-0.4487

> <Gold.Goldscore.External.Vdw.Weighted>
33.6459

> <Gold.Goldscore.Internal.HBond.Weighted>
0.0000

> <Gold.Goldscore.External.HBond.Weighted>
5.9908

> <Gold.Goldscore.Internal.Correction.Weighted>
-0.7850

> <Gold.Rescore>
     Score     S(PLP)   S(hbond)     S(cho)   S(metal)  DE(clash)   DE(tors)     intcor
     26.16     -25.78       0.77       0.00       0.00       1.37       0.27       ----

> <Gold.PLP.Fitness>
26.1648

> <Gold.PLP.PLP>
-25.7799

> <Gold.PLP.part.hbond>
-4.1175

> <Gold.PLP.part.metal>
0.0000

> <Gold.PLP.part.buried>
-1.7219

> <Gold.PLP.part.nonpolar>
-23.1629

> <Gold.PLP.part.repulsive>
1.2346

> <Gold.PLP.ligand.clash>
1.3731

> <Gold.PLP.ligand.torsion>
0.2716

> <Gold.PLP.Chemscore.Hbond>
0.7670

> <Gold.PLP.Chemscore.CHOScore>
0.0000

> <Gold.PLP.Chemscore.Metal>
0.0000

> <Gold.Chemscore.Hbonds>
donor molecule, donor type, donor heavy atom, donor atom, acceptor molecule, acceptor atom, score
      L1  H    10    23       P1 18474  0.20
      P1  H 19354 19405       L1    17  1.00

> <Gold.PLP.Chemscore.Internal.Correction>
   9.000000E+99

#       Name:                CT1002167954
#       Creating user name   hitesit
#       Creation time:       Sun Apr 16 23:04:46 2023


#       File generated by GOLD software.
#

@<TRIPOS>MOLECULE
CT1002167954|ligand_prepared|mol2|1|dock1
    29    30     1
SMALL
NO_CHARGES


@<TRIPOS>ATOM
      1 C1         250.7579  11.4622  35.1962 C.3            1 RES1               0.0000
      2 C2         250.3115  11.1526  36.6397 C.ar           1 RES1               0.0000
      3 C3         251.5891  12.7397  35.2695 C.2            1 RES1               0.0000
      4 C4         251.5355  10.2406  34.7189 C.2            1 RES1               0.0000
      5 C5         249.5849  11.6949  34.2157 C.3            1 RES1               0.0000
      6 C6         250.9756  11.7188  37.7237 C.ar           1 RES1               0.0000
      7 C7         249.2375  10.3063  36.9026 C.ar           1 RES1               0.0000
      8 N8         252.9403  12.6235  35.1265 N.am           1 RES1               0.0000
      9 O9         251.0707  13.8276  35.4890 O.2            1 RES1               0.0000
     10 N10        252.8731  10.3911  34.4618 N.am           1 RES1               0.0000
     11 O11        251.0056   9.1452  34.5791 O.2            1 RES1               0.0000
     12 C12        250.0134  12.2573  32.8696 C.3            1 RES1               0.0000
     13 C13        250.5787  11.4511  39.0234 C.ar           1 RES1               0.0000
     14 C14        248.8424  10.0398  38.2031 C.ar           1 RES1               0.0000
     15 C15        253.6172  11.5197  34.6734 C.2            1 RES1               0.0000
     16 C16        249.5117  10.6119  39.2640 C.ar           1 RES1               0.0000
     17 O17        254.8271  11.5615  34.4697 O.2            1 RES1               0.0000
     18 H18        249.0675  10.7416  34.0516 H              1 RES1               0.0000
     19 H19        248.8713  12.3886  34.6772 H              1 RES1               0.0000
     20 H20        251.8190  12.3797  37.5540 H              1 RES1               0.0000
     21 H21        248.6969   9.8441  36.0836 H              1 RES1               0.0000
     22 H22        253.4993  13.4319  35.3799 H              1 RES1               0.0000
     23 H23        253.3590   9.5873  34.0770 H              1 RES1               0.0000
     24 H24        249.1525  12.4015  32.2201 H              1 RES1               0.0000
     25 H25        250.5094  13.2178  32.9930 H              1 RES1               0.0000
     26 H26        250.7044  11.5806  32.3711 H              1 RES1               0.0000
     27 H27        251.1096  11.9028  39.8548 H              1 RES1               0.0000
     28 H28        248.0025   9.3782  38.3878 H              1 RES1               0.0000
     29 H29        249.2008  10.4027  40.2822 H              1 RES1               0.0000
@<TRIPOS>BOND
    1    1    2 1     
    2    1    3 1     
    3    1    4 1     
    4    1    5 1     
    5    2    6 ar    
    6    2    7 ar    
    7    3    8 1     
    8    3    9 2     
    9    4   10 1     
   10    4   11 2     
   11    5   12 1     
   12    5   18 1     
   13    5   19 1     
   14    6   13 ar    
   15    6   20 1     
   16    7   14 ar    
   17    7   21 1     
   18    8   15 1     
   19    8   22 1     
   20   10   15 1     
   21   10   23 1     
   22   12   24 1     
   23   12   25 1     
   24   12   26 1     
   25   13   16 ar    
   26   13   27 1     
   27   14   16 ar    
   28   14   28 1     
   29   15   17 2     
   30   16   29 1     
@<TRIPOS>SUBSTRUCTURE
      1 RES1           1
@<TRIPOS>SET
DONOR_HYDROGENS      STATIC     ATOMS    <user>   **** ""
2 22 23
ATOM$RED        STATIC     ATOMS    COLORGROUP SYSTEM
2 22 23
@<TRIPOS>COMMENT
> <Gold.Version>
2022.3.0

> <Gold.Id.Protein>
unknown|4v3u_clean|pdb

> <Gold.Protein.RotatedTorsions>
[  576  535  534  533 ] final -137.61 input   59.97 | X-H torsion
[ 2566 2531 2532 2533 ] final  -67.08 input  112.83 | X-H torsion
[ 2636 2605 2606 2607 ] final -118.90 input   41.41 | X-H torsion
[ 26091 26055 26054 26052 ] final   51.81 input   60.03 | X-H torsion
[ 27195 27136 27135 27131 ] final   66.78 input   60.01 | X-H torsion
[  728  681  682  683 ] final   79.52 input  102.19 | X-H torsion
[ 7435 7417 7418 7419 ] final   13.64 input   81.33 | X-H torsion
[ 7494 7460 7461 7462 ] final   49.49 input  103.22 | X-H torsion
[ 7528 7515 7516 7517 ] final    4.00 input   88.53 | X-H torsion
[ 17198 17178 17179 17180 ] final -115.88 input   47.40 | X-H torsion
[ 17258 17224 17225 17226 ] final  133.62 input  102.98 | X-H torsion
[ 18298 18277 18278 18279 ] final  175.30 input   30.52 | X-H torsion
[ 18328 18315 18316 18317 ] final   46.67 input   53.77 | X-H torsion
[ 18417 18373 18374 18375 ] final -131.48 input   42.60 | X-H torsion
[ 18502 18463 18464 18465 ] final -153.87 input  104.04 | X-H torsion
[ 18570 18535 18536 18537 ] final  -42.84 input   89.36 | X-H torsion
[ 18510 18474 18473 18471 ] final  -96.31 input   60.01 | X-H torsion
[ 17306 17285 17286 17287 ] final -149.82 input   49.80 | X-H torsion
[ 18250 18212 18213 18214 ] final   59.89 input   46.53 | X-H torsion
[ 18302 18282 18281 18278 ] final  155.24 input   59.98 | X-H torsion
[ 10118 10098 10097 10094 ] final  154.91 input   59.98 | X-H torsion
[ 17002 16966 16965 16963 ] final -148.61 input   59.99 | X-H torsion
[ 11499 11466 11467 11468 ] final  139.64 input   46.07 | X-H torsion
[ 11572 11531 11532 11533 ] final   39.56 input  118.20 | X-H torsion
[ 11648 11607 11608 11609 ] final  -84.30 input   50.96 | X-H torsion
[ 11438 11418 11417 11414 ] final -104.87 input   60.01 | X-H torsion
[ 27199 27138 27137 27135 ] final  163.57 input   60.02 | X-H torsion
[ 19310 19290 19289 19286 ] final  117.44 input   60.00 | X-H torsion
[ 10154 10134 10135 10136 ] final  107.32 input   25.69 | X-H torsion
[ 17361 17335 17336 17337 ] final  -93.86 input   65.66 | X-H torsion
[ 27200  684  683  682 ] final  -91.82 input    0.00 | X-H torsion
[ 27203 2534 2533 2532 ] final  117.97 input    0.00 | X-H torsion
[ 27226 7339 7338 7337 ] final    2.59 input    0.00 | X-H torsion
[ 27232 17131 17130 17129 ] final  139.08 input    0.00 | X-H torsion
[ 27236 18215 18214 18213 ] final   92.49 input    0.00 | X-H torsion
[ 27239 18280 18279 18278 ] final   86.94 input    0.00 | X-H torsion
[ 27242 18318 18317 18316 ] final  -64.95 input    0.00 | X-H torsion
[ 27245 18376 18375 18374 ] final   88.33 input   -0.00 | X-H torsion
[ 27253 17181 17180 17179 ] final  -25.77 input    0.00 | X-H torsion
[ 27255 17058 17057 17056 ] final -154.64 input    0.00 | X-H torsion
[ 27257 17227 17226 17225 ] final  106.63 input   -0.00 | X-H torsion
[ 27267 10137 10136 10135 ] final  142.81 input    0.00 | X-H torsion
[ 27269 11416 11415 11414 ] final  101.69 input    0.00 | X-H torsion
[ 27275 11610 11609 11608 ] final   56.97 input    0.00 | X-H torsion
[ 27284 18693 18692 18691 ] final -162.92 input    0.00 | X-H torsion

> <Gold.Protein.ActiveResidues>
 LYS309  TRP311  GLU314  MET341  HIS342  TRP414  ALA417  ARG419  CYS420  VAL421 
 GLY422  ARG423  SER462  ALA463  SER482  GLN483  LEU484  ILE485  ARG486  ALA502 
 TRP566  TYR567  LEU569  PRO570  ALA571  VAL572  SER573  ASN574  MET575  PHE589 
 SER590  GLY591  TRP592  TYR593  MET594  GLU597  ILE598  ARG601  ASP602  ASP605 
 SER607  ARG608  TRP683  HIS697  GLU699  TYR711  HEM750  H4B760 

> <Gold.Protein.RotatedAtoms>
  247.2119   25.5443   41.9398 H   0  0  0  0  0  0  0  0  0  0  0  0  # atno 576  bound_to 535 
  245.9639   24.4682   41.7587 H   0  0  0  0  0  0  0  0  0  0  0  0  # atno 577  bound_to 535 
  247.3976   24.2155   40.9669 H   0  0  0  0  0  0  0  0  0  0  0  0  # atno 578  bound_to 535 
  245.1297   24.5565   33.6987 H   0  0  0  0  0  0  0  0  0  0  0  0  # atno 728  bound_to 681 
  238.3317   19.4133   38.0593 H   0  0  0  0  0  0  0  0  0  0  0  0  # atno 2566 bound_to 2531
  239.4746   18.1834   40.2253 H   0  0  0  0  0  0  0  0  0  0  0  0  # atno 2636 bound_to 2605
  239.2850    5.8367   35.0650 H   0  0  0  0  0  0  0  0  0  0  0  0  # atno 7435 bound_to 7417
  242.3742    4.2667   32.8573 H   0  0  0  0  0  0  0  0  0  0  0  0  # atno 7494 bound_to 7460
  241.4010    1.9695   32.7667 H   0  0  0  0  0  0  0  0  0  0  0  0  # atno 7528 bound_to 7515
  247.0940   -4.8156   36.0928 H   0  0  0  0  0  0  0  0  0  0  0  0  # atno 10118 bound_to 10098
  250.8016   -4.0770   39.8584 H   0  0  0  0  0  0  0  0  0  0  0  0  # atno 10154 bound_to 10134
  254.9850   13.4047   42.2297 H   0  0  0  0  0  0  0  0  0  0  0  0  # atno 11438 bound_to 11418
  254.2837   10.4990   42.0762 H   0  0  0  0  0  0  0  0  0  0  0  0  # atno 11499 bound_to 11466
  255.9607    6.5683   41.5284 H   0  0  0  0  0  0  0  0  0  0  0  0  # atno 11572 bound_to 11531
  258.2511    6.7573   41.8455 H   0  0  0  0  0  0  0  0  0  0  0  0  # atno 11648 bound_to 11607
  256.8899    9.8427   35.4424 H   0  0  0  0  0  0  0  0  0  0  0  0  # atno 17002 bound_to 16966
  253.1104    3.8784   37.8038 H   0  0  0  0  0  0  0  0  0  0  0  0  # atno 17198 bound_to 17178
  250.8321    4.8554   40.1877 H   0  0  0  0  0  0  0  0  0  0  0  0  # atno 17258 bound_to 17224
  251.4130    6.1820   43.3935 H   0  0  0  0  0  0  0  0  0  0  0  0  # atno 17306 bound_to 17285
  250.8452    7.7765   46.3675 H   0  0  0  0  0  0  0  0  0  0  0  0  # atno 17361 bound_to 17335
  250.0269    2.9785   43.8123 H   0  0  0  0  0  0  0  0  0  0  0  0  # atno 18250 bound_to 18212
  250.8429    0.7295   41.6264 H   0  0  0  0  0  0  0  0  0  0  0  0  # atno 18298 bound_to 18277
  253.7094   -1.5753   39.5679 H   0  0  0  0  0  0  0  0  0  0  0  0  # atno 18302 bound_to 18282
  250.7179    0.8305   37.0902 H   0  0  0  0  0  0  0  0  0  0  0  0  # atno 18328 bound_to 18315
  250.7859   -0.6851   34.8064 H   0  0  0  0  0  0  0  0  0  0  0  0  # atno 18417 bound_to 18373
  252.1047    1.6701   32.2919 H   0  0  0  0  0  0  0  0  0  0  0  0  # atno 18502 bound_to 18463
  255.6074    8.1048   33.1610 H   0  0  0  0  0  0  0  0  0  0  0  0  # atno 18510 bound_to 18474
  250.9563    3.6123   29.2544 H   0  0  0  0  0  0  0  0  0  0  0  0  # atno 18570 bound_to 18535
  252.8319   21.9331   34.2114 H   0  0  0  0  0  0  0  0  0  0  0  0  # atno 19310 bound_to 19290
  242.8209   11.9981   39.8123 H   0  0  0  0  0  0  0  0  0  0  0  0  # atno 26091 bound_to 26055
  242.9035   19.5327   31.1532 H   0  0  0  0  0  0  0  0  0  0  0  0  # atno 27195 bound_to 27136
  239.3244   19.5708   33.9027 H   0  0  0  0  0  0  0  0  0  0  0  0  # atno 27199 bound_to 27138
  249.5436   24.3211   35.7046 LP  0  0  0  0  0  0  0  0  0  0  0  0  # atno 27200 bound_to 684 
  249.3003   22.8033   34.9065 LP  0  0  0  0  0  0  0  0  0  0  0  0  # atno 27201 bound_to 684 
  239.6904   20.5119   38.0880 LP  0  0  0  0  0  0  0  0  0  0  0  0  # atno 27202 bound_to 2531
  240.5589   16.4657   41.0040 LP  0  0  0  0  0  0  0  0  0  0  0  0  # atno 27203 bound_to 2534
  239.3202   16.1437   39.8369 LP  0  0  0  0  0  0  0  0  0  0  0  0  # atno 27204 bound_to 2534
  239.6720   19.8632   40.6666 LP  0  0  0  0  0  0  0  0  0  0  0  0  # atno 27205 bound_to 2605
  243.1762   13.5667   39.5671 LP  0  0  0  0  0  0  0  0  0  0  0  0  # atno 27209 bound_to 26055
  241.6246   13.0998   39.7703 LP  0  0  0  0  0  0  0  0  0  0  0  0  # atno 27210 bound_to 26055
  244.1791   19.1529   32.0902 LP  0  0  0  0  0  0  0  0  0  0  0  0  # atno 27213 bound_to 27136
  243.4050   20.5757   32.2976 LP  0  0  0  0  0  0  0  0  0  0  0  0  # atno 27214 bound_to 27136
  245.2918   25.6944   35.0094 LP  0  0  0  0  0  0  0  0  0  0  0  0  # atno 27215 bound_to 681 
  241.2894    8.6078   34.1817 LP  0  0  0  0  0  0  0  0  0  0  0  0  # atno 27226 bound_to 7339
  241.8812    7.0017   33.9168 LP  0  0  0  0  0  0  0  0  0  0  0  0  # atno 27227 bound_to 7339
  240.5226    6.5854   36.0414 LP  0  0  0  0  0  0  0  0  0  0  0  0  # atno 27228 bound_to 7417
  240.7432    4.8844   33.0053 LP  0  0  0  0  0  0  0  0  0  0  0  0  # atno 27229 bound_to 7460
  242.7441    2.5514   31.8092 LP  0  0  0  0  0  0  0  0  0  0  0  0  # atno 27230 bound_to 7515
  252.3250    2.0336   38.3805 LP  0  0  0  0  0  0  0  0  0  0  0  0  # atno 27232 bound_to 17131
  251.6360    2.6130   36.9008 LP  0  0  0  0  0  0  0  0  0  0  0  0  # atno 27233 bound_to 17131
  254.4307    4.7806   38.5066 LP  0  0  0  0  0  0  0  0  0  0  0  0  # atno 27234 bound_to 17178
  252.2843    4.8341   41.1641 LP  0  0  0  0  0  0  0  0  0  0  0  0  # atno 27235 bound_to 17224
  251.7649    2.6256   41.5364 LP  0  0  0  0  0  0  0  0  0  0  0  0  # atno 27236 bound_to 18215
  250.1799    3.0469   40.9794 LP  0  0  0  0  0  0  0  0  0  0  0  0  # atno 27237 bound_to 18215
  249.6567   -0.3620   40.9535 LP  0  0  0  0  0  0  0  0  0  0  0  0  # atno 27238 bound_to 18277
  249.0773   -1.7793   39.2247 LP  0  0  0  0  0  0  0  0  0  0  0  0  # atno 27239 bound_to 18280
  250.5903   -2.4901   38.7716 LP  0  0  0  0  0  0  0  0  0  0  0  0  # atno 27240 bound_to 18280
  250.2949   -0.4413   38.2160 LP  0  0  0  0  0  0  0  0  0  0  0  0  # atno 27241 bound_to 18315
  252.6204   -0.5703   35.9163 LP  0  0  0  0  0  0  0  0  0  0  0  0  # atno 27242 bound_to 18318
  252.4933   -1.9446   34.8698 LP  0  0  0  0  0  0  0  0  0  0  0  0  # atno 27243 bound_to 18318
  249.5063   -0.5624   33.6269 LP  0  0  0  0  0  0  0  0  0  0  0  0  # atno 27244 bound_to 18373
  249.5804    2.1098   32.8800 LP  0  0  0  0  0  0  0  0  0  0  0  0  # atno 27245 bound_to 18376
  249.1260    1.1368   31.5210 LP  0  0  0  0  0  0  0  0  0  0  0  0  # atno 27246 bound_to 18376
  251.8752    0.7501   30.8188 LP  0  0  0  0  0  0  0  0  0  0  0  0  # atno 27247 bound_to 18463
  249.3464    3.6300   29.9349 LP  0  0  0  0  0  0  0  0  0  0  0  0  # atno 27248 bound_to 18535
  254.4587    5.5280   41.3920 LP  0  0  0  0  0  0  0  0  0  0  0  0  # atno 27253 bound_to 17181
  253.2822    6.7991   41.3884 LP  0  0  0  0  0  0  0  0  0  0  0  0  # atno 27254 bound_to 17181
  256.0521    4.1975   37.5250 LP  0  0  0  0  0  0  0  0  0  0  0  0  # atno 27255 bound_to 17058
  257.6051    3.7371   36.9117 LP  0  0  0  0  0  0  0  0  0  0  0  0  # atno 27256 bound_to 17058
  251.3529    4.2389   44.0058 LP  0  0  0  0  0  0  0  0  0  0  0  0  # atno 27257 bound_to 17227
  249.6894    4.6965   43.8529 LP  0  0  0  0  0  0  0  0  0  0  0  0  # atno 27258 bound_to 17227
  255.5872    7.0453   34.3959 LP  0  0  0  0  0  0  0  0  0  0  0  0  # atno 27259 bound_to 18474
  254.2714    7.9588   34.0786 LP  0  0  0  0  0  0  0  0  0  0  0  0  # atno 27260 bound_to 18474
  251.4070    7.8928   43.7396 LP  0  0  0  0  0  0  0  0  0  0  0  0  # atno 27261 bound_to 17285
  250.7421    1.7320   44.8048 LP  0  0  0  0  0  0  0  0  0  0  0  0  # atno 27262 bound_to 18212
  252.1145   -1.8700   39.4405 LP  0  0  0  0  0  0  0  0  0  0  0  0  # atno 27263 bound_to 18282
  252.7607   -1.4676   40.8852 LP  0  0  0  0  0  0  0  0  0  0  0  0  # atno 27264 bound_to 18282
  248.7111   -4.8100   35.9110 LP  0  0  0  0  0  0  0  0  0  0  0  0  # atno 27265 bound_to 10098
  247.9312   -3.4440   36.3498 LP  0  0  0  0  0  0  0  0  0  0  0  0  # atno 27266 bound_to 10098
  249.1551   -1.3910   42.5498 LP  0  0  0  0  0  0  0  0  0  0  0  0  # atno 27267 bound_to 10137
  250.5193   -1.8135   41.5698 LP  0  0  0  0  0  0  0  0  0  0  0  0  # atno 27268 bound_to 10137
  251.8956    9.6879   42.1334 LP  0  0  0  0  0  0  0  0  0  0  0  0  # atno 27269 bound_to 11416
  252.0104    9.0225   43.7284 LP  0  0  0  0  0  0  0  0  0  0  0  0  # atno 27270 bound_to 11416
  256.7139    9.1588   36.9084 LP  0  0  0  0  0  0  0  0  0  0  0  0  # atno 27271 bound_to 16966
  255.8486    8.6077   35.6379 LP  0  0  0  0  0  0  0  0  0  0  0  0  # atno 27272 bound_to 16966
  254.8173    9.8619   43.6175 LP  0  0  0  0  0  0  0  0  0  0  0  0  # atno 27273 bound_to 11466
  255.3965    6.7871   43.1674 LP  0  0  0  0  0  0  0  0  0  0  0  0  # atno 27274 bound_to 11531
  257.3872    7.5994   38.7061 LP  0  0  0  0  0  0  0  0  0  0  0  0  # atno 27275 bound_to 11610
  258.5287    8.0929   37.5006 LP  0  0  0  0  0  0  0  0  0  0  0  0  # atno 27276 bound_to 11610
  257.7264    5.6157   40.6314 LP  0  0  0  0  0  0  0  0  0  0  0  0  # atno 27279 bound_to 11607
  253.8208   12.9578   41.1845 LP  0  0  0  0  0  0  0  0  0  0  0  0  # atno 27282 bound_to 11418
  254.7232   11.8253   41.9393 LP  0  0  0  0  0  0  0  0  0  0  0  0  # atno 27283 bound_to 11418
  253.2716   11.7130   29.2892 LP  0  0  0  0  0  0  0  0  0  0  0  0  # atno 27284 bound_to 18693
  251.8269   11.6483   30.2425 LP  0  0  0  0  0  0  0  0  0  0  0  0  # atno 27285 bound_to 18693

> <Gold.Score>
     Fitness  S(hb_ext) S(vdw_ext)  S(hb_int)    S(int)      intcor
     34.91       6.34      21.70       0.00      -1.27      -0.80

> <Gold.Goldscore.Fitness>
34.9091

> <Gold.Goldscore.Internal.Vdw>
-1.5050

> <Gold.Goldscore.Internal.Torsion>
-0.5638

> <Gold.Goldscore.External.Vdw>
21.7003

> <Gold.Goldscore.Internal.HBond>
0.0000

> <Gold.Goldscore.External.HBond>
6.3366

> <Gold.Goldscore.Internal.Correction>
-0.8033

> <Gold.Goldscore.Hbonds>
donor molecule, donor type, donor heavy atom, donor atom, acceptor molecule, acceptor atom, score
      P1  H 11473 11505       L1    17  0.04
      P1  H 19354 19405       L1    17  0.92
      L1  H    10    23       P1 18474  0.36

> <Gold.Goldscore.Internal.Vdw.Weighted>
-1.5050

> <Gold.Goldscore.Internal.Torsion.Weighted>
-0.5638

> <Gold.Goldscore.External.Vdw.Weighted>
29.8379

> <Gold.Goldscore.Internal.HBond.Weighted>
0.0000

> <Gold.Goldscore.External.HBond.Weighted>
6.3366

> <Gold.Goldscore.Internal.Correction.Weighted>
-0.8033

> <Gold.Rescore>
     Score     S(PLP)   S(hbond)     S(cho)   S(metal)  DE(clash)   DE(tors)     intcor
     28.16     -27.48       0.99       0.00       0.00       1.92       0.19       ----

> <Gold.PLP.Fitness>
28.1586

> <Gold.PLP.PLP>
-27.4808

> <Gold.PLP.part.hbond>
-4.2943

> <Gold.PLP.part.metal>
0.0000

> <Gold.PLP.part.buried>
-2.7591

> <Gold.PLP.part.nonpolar>
-23.3640

> <Gold.PLP.part.repulsive>
1.1096

> <Gold.PLP.ligand.clash>
1.9200

> <Gold.PLP.ligand.torsion>
0.1916

> <Gold.PLP.Chemscore.Hbond>
0.9937

> <Gold.PLP.Chemscore.CHOScore>
0.0000

> <Gold.PLP.Chemscore.Metal>
0.0000

> <Gold.Chemscore.Hbonds>
donor molecule, donor type, donor heavy atom, donor atom, acceptor molecule, acceptor atom, score
      P1  H 19354 19405       L1    17  1.00

> <Gold.PLP.Chemscore.Internal.Correction>
   9.000000E+99

#       Name:                CT1002167954
#       Creating user name   hitesit
#       Creation time:       Sun Apr 16 23:04:50 2023


#       File generated by GOLD software.
#

@<TRIPOS>MOLECULE
CT1002167954|ligand_prepared|mol2|1|dock6
    29    30     1
SMALL
NO_CHARGES


@<TRIPOS>ATOM
      1 C1         250.2862  14.3611  34.9861 C.3            1 RES1               0.0000
      2 C2         250.8352  15.7994  34.8922 C.ar           1 RES1               0.0000
      3 C3         248.7667  14.4857  35.0475 C.2            1 RES1               0.0000
      4 C4         250.8009  13.6266  33.7532 C.2            1 RES1               0.0000
      5 C5         250.7667  13.5895  36.2372 C.3            1 RES1               0.0000
      6 C6         250.6705  16.5462  33.7294 C.ar           1 RES1               0.0000
      7 C7         251.5050  16.3928  35.9589 C.ar           1 RES1               0.0000
      8 N8         248.0593  14.1449  33.9324 N.am           1 RES1               0.0000
      9 O9         248.2004  14.9140  36.0455 O.2            1 RES1               0.0000
     10 N10        249.8836  13.2105  32.8241 N.am           1 RES1               0.0000
     11 O11        251.9941  13.4192  33.5697 O.2            1 RES1               0.0000
     12 C12        250.4190  12.1093  36.2157 C.3            1 RES1               0.0000
     13 C13        251.1551  17.8404  33.6374 C.ar           1 RES1               0.0000
     14 C14        251.9890  17.6872  35.8646 C.ar           1 RES1               0.0000
     15 C15        248.5390  13.4634  32.8429 C.2            1 RES1               0.0000
     16 C16        251.8142  18.4119  34.7049 C.ar           1 RES1               0.0000
     17 O17        247.7860  13.1029  31.9428 O.2            1 RES1               0.0000
     18 H18        251.8554  13.6953  36.3208 H              1 RES1               0.0000
     19 H19        250.3162  14.0450  37.1277 H              1 RES1               0.0000
     20 H20        250.1565  16.1123  32.8782 H              1 RES1               0.0000
     21 H21        251.6550  15.8412  36.8807 H              1 RES1               0.0000
     22 H22        247.0833  14.4225  33.9062 H              1 RES1               0.0000
     23 H23        250.2357  12.6612  32.0465 H              1 RES1               0.0000
     24 H24        250.7787  11.6155  37.1159 H              1 RES1               0.0000
     25 H25        249.3419  11.9669  36.1584 H              1 RES1               0.0000
     26 H26        250.8719  11.6192  35.3563 H              1 RES1               0.0000
     27 H27        251.0161  18.4061  32.7220 H              1 RES1               0.0000
     28 H28        252.5077  18.1327  36.7070 H              1 RES1               0.0000
     29 H29        252.1934  19.4259  34.6327 H              1 RES1               0.0000
@<TRIPOS>BOND
    1    1    2 1     
    2    1    3 1     
    3    1    4 1     
    4    1    5 1     
    5    2    6 ar    
    6    2    7 ar    
    7    3    8 1     
    8    3    9 2     
    9    4   10 1     
   10    4   11 2     
   11    5   12 1     
   12    5   18 1     
   13    5   19 1     
   14    6   13 ar    
   15    6   20 1     
   16    7   14 ar    
   17    7   21 1     
   18    8   15 1     
   19    8   22 1     
   20   10   15 1     
   21   10   23 1     
   22   12   24 1     
   23   12   25 1     
   24   12   26 1     
   25   13   16 ar    
   26   13   27 1     
   27   14   16 ar    
   28   14   28 1     
   29   15   17 2     
   30   16   29 1     
@<TRIPOS>SUBSTRUCTURE
      1 RES1           1
@<TRIPOS>SET
DONOR_HYDROGENS      STATIC     ATOMS    <user>   **** ""
2 22 23
ATOM$RED        STATIC     ATOMS    COLORGROUP SYSTEM
2 22 23
@<TRIPOS>COMMENT
> <Gold.Version>
2022.3.0

> <Gold.Id.Protein>
unknown|4v3u_clean|pdb

> <Gold.Protein.RotatedTorsions>
[  576  535  534  533 ] final   79.25 input   59.97 | X-H torsion
[ 2566 2531 2532 2533 ] final   53.18 input  112.83 | X-H torsion
[ 2636 2605 2606 2607 ] final  126.63 input   41.41 | X-H torsion
[ 26091 26055 26054 26052 ] final   52.55 input   60.03 | X-H torsion
[ 27195 27136 27135 27131 ] final -106.28 input   60.01 | X-H torsion
[  728  681  682  683 ] final   79.26 input  102.19 | X-H torsion
[ 7435 7417 7418 7419 ] final   62.62 input   81.33 | X-H torsion
[ 7494 7460 7461 7462 ] final  -57.66 input  103.22 | X-H torsion
[ 7528 7515 7516 7517 ] final -111.50 input   88.53 | X-H torsion
[ 17198 17178 17179 17180 ] final -157.24 input   47.40 | X-H torsion
[ 17258 17224 17225 17226 ] final  -32.96 input  102.98 | X-H torsion
[ 18298 18277 18278 18279 ] final   97.25 input   30.52 | X-H torsion
[ 18328 18315 18316 18317 ] final -166.45 input   53.77 | X-H torsion
[ 18417 18373 18374 18375 ] final -102.18 input   42.60 | X-H torsion
[ 18502 18463 18464 18465 ] final   85.84 input  104.04 | X-H torsion
[ 18570 18535 18536 18537 ] final   12.47 input   89.36 | X-H torsion
[ 18510 18474 18473 18471 ] final  -71.82 input   60.01 | X-H torsion
[ 17306 17285 17286 17287 ] final  -45.70 input   49.80 | X-H torsion
[ 18250 18212 18213 18214 ] final   47.66 input   46.53 | X-H torsion
[ 18302 18282 18281 18278 ] final  -94.46 input   59.98 | X-H torsion
[ 10118 10098 10097 10094 ] final   71.24 input   59.98 | X-H torsion
[ 17002 16966 16965 16963 ] final -124.33 input   59.99 | X-H torsion
[ 11499 11466 11467 11468 ] final  -73.18 input   46.07 | X-H torsion
[ 11572 11531 11532 11533 ] final  -12.67 input  118.20 | X-H torsion
[ 11648 11607 11608 11609 ] final  -35.03 input   50.96 | X-H torsion
[ 11438 11418 11417 11414 ] final   13.27 input   60.01 | X-H torsion
[ 27199 27138 27137 27135 ] final  -18.00 input   60.02 | X-H torsion
[ 19310 19290 19289 19286 ] final   17.27 input   60.00 | X-H torsion
[ 10154 10134 10135 10136 ] final   44.86 input   25.69 | X-H torsion
[ 17361 17335 17336 17337 ] final    0.25 input   65.66 | X-H torsion
[ 27200  684  683  682 ] final  -75.39 input    0.00 | X-H torsion
[ 27203 2534 2533 2532 ] final  138.12 input    0.00 | X-H torsion
[ 27226 7339 7338 7337 ] final -157.21 input    0.00 | X-H torsion
[ 27232 17131 17130 17129 ] final   25.23 input    0.00 | X-H torsion
[ 27236 18215 18214 18213 ] final  -43.36 input    0.00 | X-H torsion
[ 27239 18280 18279 18278 ] final  -45.21 input    0.00 | X-H torsion
[ 27242 18318 18317 18316 ] final   11.15 input    0.00 | X-H torsion
[ 27245 18376 18375 18374 ] final  -28.32 input   -0.00 | X-H torsion
[ 27253 17181 17180 17179 ] final   50.50 input    0.00 | X-H torsion
[ 27255 17058 17057 17056 ] final   -5.14 input    0.00 | X-H torsion
[ 27257 17227 17226 17225 ] final   50.29 input   -0.00 | X-H torsion
[ 27267 10137 10136 10135 ] final   82.84 input    0.00 | X-H torsion
[ 27269 11416 11415 11414 ] final -148.96 input    0.00 | X-H torsion
[ 27275 11610 11609 11608 ] final  156.14 input    0.00 | X-H torsion
[ 27284 18693 18692 18691 ] final   -9.42 input    0.00 | X-H torsion

> <Gold.Protein.ActiveResidues>
 LYS309  TRP311  GLU314  MET341  HIS342  TRP414  ALA417  ARG419  CYS420  VAL421 
 GLY422  ARG423  SER462  ALA463  SER482  GLN483  LEU484  ILE485  ARG486  ALA502 
 TRP566  TYR567  LEU569  PRO570  ALA571  VAL572  SER573  ASN574  MET575  PHE589 
 SER590  GLY591  TRP592  TYR593  MET594  GLU597  ILE598  ARG601  ASP602  ASP605 
 SER607  ARG608  TRP683  HIS697  GLU699  TYR711  HEM750  H4B760 

> <Gold.Protein.RotatedAtoms>
  247.0707   24.0131   40.9737 H   0  0  0  0  0  0  0  0  0  0  0  0  # atno 576  bound_to 535 
  247.5081   25.4224   41.7293 H   0  0  0  0  0  0  0  0  0  0  0  0  # atno 577  bound_to 535 
  245.9932   24.7923   41.9628 H   0  0  0  0  0  0  0  0  0  0  0  0  # atno 578  bound_to 535 
  245.1324   24.5585   33.6966 H   0  0  0  0  0  0  0  0  0  0  0  0  # atno 728  bound_to 681 
  239.2202   20.4092   38.8133 H   0  0  0  0  0  0  0  0  0  0  0  0  # atno 2566 bound_to 2531
  240.4063   19.2670   40.6385 H   0  0  0  0  0  0  0  0  0  0  0  0  # atno 2636 bound_to 2605
  239.3588    5.5502   35.7312 H   0  0  0  0  0  0  0  0  0  0  0  0  # atno 7435 bound_to 7417
  241.0739    3.9722   33.3791 H   0  0  0  0  0  0  0  0  0  0  0  0  # atno 7494 bound_to 7460
  241.9847    2.1909   31.4031 H   0  0  0  0  0  0  0  0  0  0  0  0  # atno 7528 bound_to 7515
  248.2648   -5.1869   35.8664 H   0  0  0  0  0  0  0  0  0  0  0  0  # atno 10118 bound_to 10098
  250.3406   -3.3085   40.0468 H   0  0  0  0  0  0  0  0  0  0  0  0  # atno 10154 bound_to 10134
  254.7418   11.8406   41.9593 H   0  0  0  0  0  0  0  0  0  0  0  0  # atno 11438 bound_to 11418
  254.3286    9.7761   43.6253 H   0  0  0  0  0  0  0  0  0  0  0  0  # atno 11499 bound_to 11466
  256.1980    7.2149   41.8883 H   0  0  0  0  0  0  0  0  0  0  0  0  # atno 11572 bound_to 11531
  257.7959    7.0360   41.3388 H   0  0  0  0  0  0  0  0  0  0  0  0  # atno 11648 bound_to 11607
  256.6502    9.6562   35.1917 H   0  0  0  0  0  0  0  0  0  0  0  0  # atno 17002 bound_to 16966
  253.6090    3.5127   37.8837 H   0  0  0  0  0  0  0  0  0  0  0  0  # atno 17198 bound_to 17178
  252.1939    4.7086   41.3020 H   0  0  0  0  0  0  0  0  0  0  0  0  # atno 17258 bound_to 17224
  250.5769    7.2146   43.7950 H   0  0  0  0  0  0  0  0  0  0  0  0  # atno 17306 bound_to 17285
  249.8705    7.9584   45.5369 H   0  0  0  0  0  0  0  0  0  0  0  0  # atno 17361 bound_to 17335
  250.1959    2.9821   43.7302 H   0  0  0  0  0  0  0  0  0  0  0  0  # atno 18250 bound_to 18212
  250.8827   -0.3773   41.5352 H   0  0  0  0  0  0  0  0  0  0  0  0  # atno 18298 bound_to 18277
  252.9171   -1.4405   40.8769 H   0  0  0  0  0  0  0  0  0  0  0  0  # atno 18302 bound_to 18282
  249.8736   -0.1747   38.1784 H   0  0  0  0  0  0  0  0  0  0  0  0  # atno 18328 bound_to 18315
  250.6557   -0.2610   34.8256 H   0  0  0  0  0  0  0  0  0  0  0  0  # atno 18417 bound_to 18373
  252.6809    1.0304   31.0048 H   0  0  0  0  0  0  0  0  0  0  0  0  # atno 18502 bound_to 18463
  255.2542    8.2857   33.1499 H   0  0  0  0  0  0  0  0  0  0  0  0  # atno 18510 bound_to 18474
  250.6671    4.3297   29.5306 H   0  0  0  0  0  0  0  0  0  0  0  0  # atno 18570 bound_to 18535
  253.2382   21.2944   32.9915 H   0  0  0  0  0  0  0  0  0  0  0  0  # atno 19310 bound_to 19290
  242.8095   11.9947   39.8138 H   0  0  0  0  0  0  0  0  0  0  0  0  # atno 26091 bound_to 26055
  244.1329   19.8722   32.5206 H   0  0  0  0  0  0  0  0  0  0  0  0  # atno 27195 bound_to 27136
  240.5278   18.1537   34.1219 H   0  0  0  0  0  0  0  0  0  0  0  0  # atno 27199 bound_to 27138
  249.3977   24.2151   35.8740 LP  0  0  0  0  0  0  0  0  0  0  0  0  # atno 27200 bound_to 684 
  249.4461   22.9093   34.7370 LP  0  0  0  0  0  0  0  0  0  0  0  0  # atno 27201 bound_to 684 
  238.8223   19.5388   37.3512 LP  0  0  0  0  0  0  0  0  0  0  0  0  # atno 27202 bound_to 2531
  240.3129   16.4931   41.1788 LP  0  0  0  0  0  0  0  0  0  0  0  0  # atno 27203 bound_to 2534
  239.5662   16.1163   39.6621 LP  0  0  0  0  0  0  0  0  0  0  0  0  # atno 27204 bound_to 2534
  238.7626   18.8055   40.2633 LP  0  0  0  0  0  0  0  0  0  0  0  0  # atno 27205 bound_to 2605
  243.1850   13.5584   39.5674 LP  0  0  0  0  0  0  0  0  0  0  0  0  # atno 27209 bound_to 26055
  241.6273   13.1115   39.7685 LP  0  0  0  0  0  0  0  0  0  0  0  0  # atno 27210 bound_to 26055
  242.8514   20.4229   31.6818 LP  0  0  0  0  0  0  0  0  0  0  0  0  # atno 27213 bound_to 27136
  243.4954   18.9641   31.3297 LP  0  0  0  0  0  0  0  0  0  0  0  0  # atno 27214 bound_to 27136
  245.2891   25.6924   35.0115 LP  0  0  0  0  0  0  0  0  0  0  0  0  # atno 27215 bound_to 681 
  241.6840    7.0244   33.6869 LP  0  0  0  0  0  0  0  0  0  0  0  0  # atno 27226 bound_to 7339
  241.4866    8.5851   34.4116 LP  0  0  0  0  0  0  0  0  0  0  0  0  # atno 27227 bound_to 7339
  240.4499    6.8676   35.3851 LP  0  0  0  0  0  0  0  0  0  0  0  0  # atno 27228 bound_to 7417
  242.0009    5.1692   32.5007 LP  0  0  0  0  0  0  0  0  0  0  0  0  # atno 27229 bound_to 7460
  242.1763    2.3361   33.1356 LP  0  0  0  0  0  0  0  0  0  0  0  0  # atno 27230 bound_to 7515
  252.3063    1.9473   36.9318 LP  0  0  0  0  0  0  0  0  0  0  0  0  # atno 27232 bound_to 17131
  251.6547    2.6993   38.3494 LP  0  0  0  0  0  0  0  0  0  0  0  0  # atno 27233 bound_to 17131
  253.9427    5.1386   38.4283 LP  0  0  0  0  0  0  0  0  0  0  0  0  # atno 27234 bound_to 17178
  250.9653    4.9763   40.0848 LP  0  0  0  0  0  0  0  0  0  0  0  0  # atno 27235 bound_to 17224
  250.2613    3.1823   41.6109 LP  0  0  0  0  0  0  0  0  0  0  0  0  # atno 27236 bound_to 18215
  251.6835    2.4903   40.9049 LP  0  0  0  0  0  0  0  0  0  0  0  0  # atno 27237 bound_to 18215
  249.6177    0.7220   41.0428 LP  0  0  0  0  0  0  0  0  0  0  0  0  # atno 27238 bound_to 18277
  250.5648   -2.2766   39.4403 LP  0  0  0  0  0  0  0  0  0  0  0  0  # atno 27239 bound_to 18280
  249.1028   -1.9928   38.5560 LP  0  0  0  0  0  0  0  0  0  0  0  0  # atno 27240 bound_to 18280
  251.1120    0.5315   37.1628 LP  0  0  0  0  0  0  0  0  0  0  0  0  # atno 27241 bound_to 18315
  252.3270   -1.5651   36.1693 LP  0  0  0  0  0  0  0  0  0  0  0  0  # atno 27242 bound_to 18318
  252.7867   -0.9499   34.6168 LP  0  0  0  0  0  0  0  0  0  0  0  0  # atno 27243 bound_to 18318
  249.6349   -0.9812   33.6079 LP  0  0  0  0  0  0  0  0  0  0  0  0  # atno 27244 bound_to 18373
  249.0882    0.8168   32.3716 LP  0  0  0  0  0  0  0  0  0  0  0  0  # atno 27245 bound_to 18376
  249.6182    2.4298   32.0295 LP  0  0  0  0  0  0  0  0  0  0  0  0  # atno 27246 bound_to 18376
  251.3209    1.3656   32.0572 LP  0  0  0  0  0  0  0  0  0  0  0  0  # atno 27247 bound_to 18463
  249.6287    2.9301   29.6655 LP  0  0  0  0  0  0  0  0  0  0  0  0  # atno 27248 bound_to 18535
  254.2362    6.2197   40.6072 LP  0  0  0  0  0  0  0  0  0  0  0  0  # atno 27253 bound_to 17181
  253.5048    6.1075   42.1732 LP  0  0  0  0  0  0  0  0  0  0  0  0  # atno 27254 bound_to 17181
  257.5381    3.4743   37.2776 LP  0  0  0  0  0  0  0  0  0  0  0  0  # atno 27255 bound_to 17058
  256.1190    4.4603   37.1591 LP  0  0  0  0  0  0  0  0  0  0  0  0  # atno 27256 bound_to 17058
  250.9670    4.0638   43.3064 LP  0  0  0  0  0  0  0  0  0  0  0  0  # atno 27257 bound_to 17227
  250.0752    4.8716   44.5523 LP  0  0  0  0  0  0  0  0  0  0  0  0  # atno 27258 bound_to 17227
  255.8691    7.1403   34.1287 LP  0  0  0  0  0  0  0  0  0  0  0  0  # atno 27259 bound_to 18474
  254.3454    7.6815   34.3569 LP  0  0  0  0  0  0  0  0  0  0  0  0  # atno 27260 bound_to 18474
  252.2293    6.8772   43.3447 LP  0  0  0  0  0  0  0  0  0  0  0  0  # atno 27261 bound_to 17285
  250.5763    1.7285   44.8853 LP  0  0  0  0  0  0  0  0  0  0  0  0  # atno 27262 bound_to 18212
  253.6411   -1.6174   39.4307 LP  0  0  0  0  0  0  0  0  0  0  0  0  # atno 27263 bound_to 18282
  252.0322   -1.8561   39.5764 LP  0  0  0  0  0  0  0  0  0  0  0  0  # atno 27264 bound_to 18282
  248.4823   -3.6188   36.2432 LP  0  0  0  0  0  0  0  0  0  0  0  0  # atno 27265 bound_to 10098
  246.9811   -4.2614   36.2456 LP  0  0  0  0  0  0  0  0  0  0  0  0  # atno 27266 bound_to 10098
  249.0339   -1.7231   41.7597 LP  0  0  0  0  0  0  0  0  0  0  0  0  # atno 27267 bound_to 10137
  250.6406   -1.4814   42.3599 LP  0  0  0  0  0  0  0  0  0  0  0  0  # atno 27268 bound_to 10137
  252.3654    8.5945   42.8955 LP  0  0  0  0  0  0  0  0  0  0  0  0  # atno 27269 bound_to 11416
  251.5406   10.1159   42.9663 LP  0  0  0  0  0  0  0  0  0  0  0  0  # atno 27270 bound_to 11416
  256.9412    9.4575   36.7803 LP  0  0  0  0  0  0  0  0  0  0  0  0  # atno 27271 bound_to 16966
  255.8628    8.4967   36.0184 LP  0  0  0  0  0  0  0  0  0  0  0  0  # atno 27272 bound_to 16966
  254.7740   10.5591   42.1236 LP  0  0  0  0  0  0  0  0  0  0  0  0  # atno 27273 bound_to 11466
  255.1642    6.1540   42.8149 LP  0  0  0  0  0  0  0  0  0  0  0  0  # atno 27274 bound_to 11531
  257.8636    8.7047   38.1671 LP  0  0  0  0  0  0  0  0  0  0  0  0  # atno 27275 bound_to 11610
  258.0523    6.9876   38.0397 LP  0  0  0  0  0  0  0  0  0  0  0  0  # atno 27276 bound_to 11610
  258.1720    5.3428   41.1275 LP  0  0  0  0  0  0  0  0  0  0  0  0  # atno 27279 bound_to 11607
  254.9728   13.4306   42.2168 LP  0  0  0  0  0  0  0  0  0  0  0  0  # atno 27282 bound_to 11418
  253.8161   12.9281   41.1794 LP  0  0  0  0  0  0  0  0  0  0  0  0  # atno 27283 bound_to 11418
  251.7110   11.8394   29.9145 LP  0  0  0  0  0  0  0  0  0  0  0  0  # atno 27284 bound_to 18693
  253.3875   11.5219   29.6173 LP  0  0  0  0  0  0  0  0  0  0  0  0  # atno 27285 bound_to 18693

> <Gold.Score>
     Fitness  S(hb_ext) S(vdw_ext)  S(hb_int)    S(int)      intcor
     34.72       6.60      20.61       0.00      -0.22      -0.77

> <Gold.Goldscore.Fitness>
34.7162

> <Gold.Goldscore.Internal.Vdw>
-0.4815

> <Gold.Goldscore.Internal.Torsion>
-0.5100

> <Gold.Goldscore.External.Vdw>
20.6071

> <Gold.Goldscore.Internal.HBond>
0.0000

> <Gold.Goldscore.External.HBond>
6.6036

> <Gold.Goldscore.Internal.Correction>
-0.7693

> <Gold.Goldscore.Hbonds>
donor molecule, donor type, donor heavy atom, donor atom, acceptor molecule, acceptor atom, score
      P1  H 19353 19403       L1    11  0.10
      L1  H     8    22       P1 27129  1.00

> <Gold.Goldscore.Internal.Vdw.Weighted>
-0.4815

> <Gold.Goldscore.Internal.Torsion.Weighted>
-0.5100

> <Gold.Goldscore.External.Vdw.Weighted>
28.3348

> <Gold.Goldscore.Internal.HBond.Weighted>
0.0000

> <Gold.Goldscore.External.HBond.Weighted>
6.6036

> <Gold.Goldscore.Internal.Correction.Weighted>
-0.7693

> <Gold.Rescore>
     Score     S(PLP)   S(hbond)     S(cho)   S(metal)  DE(clash)   DE(tors)     intcor
     21.93     -17.39       1.59       0.00       0.00       0.00       0.12       ----

> <Gold.PLP.Fitness>
21.9288

> <Gold.PLP.PLP>
-17.3900

> <Gold.PLP.part.hbond>
-3.3907

> <Gold.PLP.part.metal>
0.0000

> <Gold.PLP.part.buried>
-5.1910

> <Gold.PLP.part.nonpolar>
-10.2755

> <Gold.PLP.part.repulsive>
0.7653

> <Gold.PLP.ligand.clash>
0.0000

> <Gold.PLP.ligand.torsion>
0.1186

> <Gold.PLP.Chemscore.Hbond>
1.5920

> <Gold.PLP.Chemscore.CHOScore>
0.0000

> <Gold.PLP.Chemscore.Metal>
0.0000

> <Gold.Chemscore.Hbonds>
donor molecule, donor type, donor heavy atom, donor atom, acceptor molecule, acceptor atom, score
      L1  H     8    22       P1 27129  1.00
      P1  H 19353 19403       L1    11  0.89

> <Gold.PLP.Chemscore.Internal.Correction>
   9.000000E+99

#       Name:                CT1002167954
#       Creating user name   hitesit
#       Creation time:       Sun Apr 16 23:04:53 2023


#       File generated by GOLD software.
#

@<TRIPOS>MOLECULE
CT1002167954|ligand_prepared|mol2|1|dock10
    29    30     1
SMALL
NO_CHARGES


@<TRIPOS>ATOM
      1 C1         249.9814  11.0074  38.6680 C.3            1 RES1               0.0000
      2 C2         250.5035  10.2742  37.4156 C.ar           1 RES1               0.0000
      3 C3         250.3046  12.4848  38.4655 C.2            1 RES1               0.0000
      4 C4         248.4897  10.7025  38.7500 C.2            1 RES1               0.0000
      5 C5         250.6383  10.5371  39.9866 C.3            1 RES1               0.0000
      6 C6         250.3589  10.8392  36.1520 C.ar           1 RES1               0.0000
      7 C7         251.1331   9.0358  37.5080 C.ar           1 RES1               0.0000
      8 N8         249.2715  13.3219  38.1626 N.am           1 RES1               0.0000
      9 O9         251.4542  12.9023  38.5316 O.2            1 RES1               0.0000
     10 N10        247.6119  11.7419  38.5859 N.am           1 RES1               0.0000
     11 O11        248.0663   9.5687  38.9387 O.2            1 RES1               0.0000
     12 C12        250.2654  11.3837  41.1934 C.3            1 RES1               0.0000
     13 C13        250.8294  10.1910  35.0220 C.ar           1 RES1               0.0000
     14 C14        251.6027   8.3893  36.3766 C.ar           1 RES1               0.0000
     15 C15        247.9346  13.0324  38.2653 C.2            1 RES1               0.0000
     16 C16        251.4519   8.9660  35.1335 C.ar           1 RES1               0.0000
     17 O17        247.0855  13.8995  38.0802 O.2            1 RES1               0.0000
     18 H18        250.3412   9.4987  40.1784 H              1 RES1               0.0000
     19 H19        251.7284  10.5569  39.8648 H              1 RES1               0.0000
     20 H20        249.8695  11.8014  36.0443 H              1 RES1               0.0000
     21 H21        251.2618   8.5627  38.4756 H              1 RES1               0.0000
     22 H22        249.5154  14.2489  37.8286 H              1 RES1               0.0000
     23 H23        246.6267  11.5344  38.7147 H              1 RES1               0.0000
     24 H24        250.7530  11.0108  42.0917 H              1 RES1               0.0000
     25 H25        250.5692  12.4182  41.0476 H              1 RES1               0.0000
     26 H26        249.1902  11.3663  41.3594 H              1 RES1               0.0000
     27 H27        250.7070  10.6485  34.0458 H              1 RES1               0.0000
     28 H28        252.0914   7.4250  36.4691 H              1 RES1               0.0000
     29 H29        251.8207   8.4587  34.2482 H              1 RES1               0.0000
@<TRIPOS>BOND
    1    1    2 1     
    2    1    3 1     
    3    1    4 1     
    4    1    5 1     
    5    2    6 ar    
    6    2    7 ar    
    7    3    8 1     
    8    3    9 2     
    9    4   10 1     
   10    4   11 2     
   11    5   12 1     
   12    5   18 1     
   13    5   19 1     
   14    6   13 ar    
   15    6   20 1     
   16    7   14 ar    
   17    7   21 1     
   18    8   15 1     
   19    8   22 1     
   20   10   15 1     
   21   10   23 1     
   22   12   24 1     
   23   12   25 1     
   24   12   26 1     
   25   13   16 ar    
   26   13   27 1     
   27   14   16 ar    
   28   14   28 1     
   29   15   17 2     
   30   16   29 1     
@<TRIPOS>SUBSTRUCTURE
      1 RES1           1
@<TRIPOS>SET
DONOR_HYDROGENS      STATIC     ATOMS    <user>   **** ""
2 22 23
ATOM$RED        STATIC     ATOMS    COLORGROUP SYSTEM
2 22 23
@<TRIPOS>COMMENT
> <Gold.Version>
2022.3.0

> <Gold.Id.Protein>
unknown|4v3u_clean|pdb

> <Gold.Protein.RotatedTorsions>
[  576  535  534  533 ] final -116.12 input   59.97 | X-H torsion
[ 2566 2531 2532 2533 ] final  -95.72 input  112.83 | X-H torsion
[ 2636 2605 2606 2607 ] final  -47.38 input   41.41 | X-H torsion
[ 26091 26055 26054 26052 ] final  -33.28 input   60.03 | X-H torsion
[ 27195 27136 27135 27131 ] final   80.93 input   60.01 | X-H torsion
[  728  681  682  683 ] final   -9.13 input  102.19 | X-H torsion
[ 7435 7417 7418 7419 ] final -168.87 input   81.33 | X-H torsion
[ 7494 7460 7461 7462 ] final   45.39 input  103.22 | X-H torsion
[ 7528 7515 7516 7517 ] final  -55.18 input   88.53 | X-H torsion
[ 17198 17178 17179 17180 ] final  101.34 input   47.40 | X-H torsion
[ 17258 17224 17225 17226 ] final  -79.89 input  102.98 | X-H torsion
[ 18298 18277 18278 18279 ] final -120.03 input   30.52 | X-H torsion
[ 18328 18315 18316 18317 ] final -119.00 input   53.77 | X-H torsion
[ 18417 18373 18374 18375 ] final -127.02 input   42.60 | X-H torsion
[ 18502 18463 18464 18465 ] final   -9.67 input  104.04 | X-H torsion
[ 18570 18535 18536 18537 ] final -122.58 input   89.36 | X-H torsion
[ 18510 18474 18473 18471 ] final  -34.16 input   60.01 | X-H torsion
[ 17306 17285 17286 17287 ] final -142.63 input   49.80 | X-H torsion
[ 18250 18212 18213 18214 ] final   25.61 input   46.53 | X-H torsion
[ 18302 18282 18281 18278 ] final  -34.00 input   59.98 | X-H torsion
[ 10118 10098 10097 10094 ] final  -16.05 input   59.98 | X-H torsion
[ 17002 16966 16965 16963 ] final  -62.16 input   59.99 | X-H torsion
[ 11499 11466 11467 11468 ] final -159.84 input   46.07 | X-H torsion
[ 11572 11531 11532 11533 ] final  -37.60 input  118.20 | X-H torsion
[ 11648 11607 11608 11609 ] final   32.87 input   50.96 | X-H torsion
[ 11438 11418 11417 11414 ] final   80.00 input   60.01 | X-H torsion
[ 27199 27138 27137 27135 ] final  -63.59 input   60.02 | X-H torsion
[ 19310 19290 19289 19286 ] final -123.92 input   60.00 | X-H torsion
[ 10154 10134 10135 10136 ] final   86.38 input   25.69 | X-H torsion
[ 17361 17335 17336 17337 ] final   68.96 input   65.66 | X-H torsion
[ 27200  684  683  682 ] final  135.30 input    0.00 | X-H torsion
[ 27203 2534 2533 2532 ] final  164.70 input    0.00 | X-H torsion
[ 27226 7339 7338 7337 ] final -154.50 input    0.00 | X-H torsion
[ 27232 17131 17130 17129 ] final    0.13 input    0.00 | X-H torsion
[ 27236 18215 18214 18213 ] final   31.83 input    0.00 | X-H torsion
[ 27239 18280 18279 18278 ] final   65.48 input    0.00 | X-H torsion
[ 27242 18318 18317 18316 ] final    1.98 input    0.00 | X-H torsion
[ 27245 18376 18375 18374 ] final   30.42 input   -0.00 | X-H torsion
[ 27253 17181 17180 17179 ] final   68.23 input    0.00 | X-H torsion
[ 27255 17058 17057 17056 ] final  -87.62 input    0.00 | X-H torsion
[ 27257 17227 17226 17225 ] final -176.45 input   -0.00 | X-H torsion
[ 27267 10137 10136 10135 ] final  163.97 input    0.00 | X-H torsion
[ 27269 11416 11415 11414 ] final   47.10 input    0.00 | X-H torsion
[ 27275 11610 11609 11608 ] final   11.01 input    0.00 | X-H torsion
[ 27284 18693 18692 18691 ] final   39.96 input    0.00 | X-H torsion

> <Gold.Protein.ActiveResidues>
 LYS309  TRP311  GLU314  MET341  HIS342  TRP414  ALA417  ARG419  CYS420  VAL421 
 GLY422  ARG423  SER462  ALA463  SER482  GLN483  LEU484  ILE485  ARG486  ALA502 
 TRP566  TYR567  LEU569  PRO570  ALA571  VAL572  SER573  ASN574  MET575  PHE589 
 SER590  GLY591  TRP592  TYR593  MET594  GLU597  ILE598  ARG601  ASP602  ASP605 
 SER607  ARG608  TRP683  HIS697  GLU699  TYR711  HEM750  H4B760 

> <Gold.Protein.RotatedAtoms>
  246.8842   25.5423   42.0806 H   0  0  0  0  0  0  0  0  0  0  0  0  # atno 576  bound_to 535 
  246.0654   24.2064   41.5389 H   0  0  0  0  0  0  0  0  0  0  0  0  # atno 577  bound_to 535 
  247.6238   24.4796   41.0461 H   0  0  0  0  0  0  0  0  0  0  0  0  # atno 578  bound_to 535 
  245.7983   25.5653   33.8770 H   0  0  0  0  0  0  0  0  0  0  0  0  # atno 728  bound_to 681 
  238.4977   19.3905   37.6556 H   0  0  0  0  0  0  0  0  0  0  0  0  # atno 2566 bound_to 2531
  238.7182   18.8860   40.2826 H   0  0  0  0  0  0  0  0  0  0  0  0  # atno 2636 bound_to 2605
  240.5179    6.5715   36.0798 H   0  0  0  0  0  0  0  0  0  0  0  0  # atno 7435 bound_to 7417
  242.3554    4.2157   32.8901 H   0  0  0  0  0  0  0  0  0  0  0  0  # atno 7494 bound_to 7460
  241.3597    1.9269   31.8931 H   0  0  0  0  0  0  0  0  0  0  0  0  # atno 7528 bound_to 7515
  248.7869   -4.0291   36.1060 H   0  0  0  0  0  0  0  0  0  0  0  0  # atno 10118 bound_to 10098
  250.7479   -3.7664   39.9187 H   0  0  0  0  0  0  0  0  0  0  0  0  # atno 10154 bound_to 10134
  253.9924   12.1146   41.3087 H   0  0  0  0  0  0  0  0  0  0  0  0  # atno 11438 bound_to 11418
  253.6876   10.1614   42.6572 H   0  0  0  0  0  0  0  0  0  0  0  0  # atno 11499 bound_to 11466
  256.1680    7.3989   42.2207 H   0  0  0  0  0  0  0  0  0  0  0  0  # atno 11572 bound_to 11531
  257.4391    6.4797   40.6068 H   0  0  0  0  0  0  0  0  0  0  0  0  # atno 11648 bound_to 11607
  256.0161    8.9280   35.2335 H   0  0  0  0  0  0  0  0  0  0  0  0  # atno 17002 bound_to 16966
  254.6123    4.2581   38.4363 H   0  0  0  0  0  0  0  0  0  0  0  0  # atno 17198 bound_to 17178
  252.3837    5.1797   40.8088 H   0  0  0  0  0  0  0  0  0  0  0  0  # atno 17258 bound_to 17224
  251.3057    6.1835   43.4190 H   0  0  0  0  0  0  0  0  0  0  0  0  # atno 17306 bound_to 17285
  250.3034    8.6339   44.9450 H   0  0  0  0  0  0  0  0  0  0  0  0  # atno 17361 bound_to 17335
  250.5170    2.9168   43.6511 H   0  0  0  0  0  0  0  0  0  0  0  0  # atno 18250 bound_to 18212
  250.0246    1.0326   41.2663 H   0  0  0  0  0  0  0  0  0  0  0  0  # atno 18298 bound_to 18277
  252.0877   -1.6585   40.4864 H   0  0  0  0  0  0  0  0  0  0  0  0  # atno 18302 bound_to 18282
  250.4889   -0.5401   38.1785 H   0  0  0  0  0  0  0  0  0  0  0  0  # atno 18328 bound_to 18315
  250.7764   -0.6188   34.8196 H   0  0  0  0  0  0  0  0  0  0  0  0  # atno 18417 bound_to 18373
  251.3772    0.8127   31.0181 H   0  0  0  0  0  0  0  0  0  0  0  0  # atno 18502 bound_to 18463
  254.7000    8.3539   33.3812 H   0  0  0  0  0  0  0  0  0  0  0  0  # atno 18510 bound_to 18474
  250.2107    2.7668   29.3801 H   0  0  0  0  0  0  0  0  0  0  0  0  # atno 18570 bound_to 18535
  251.7692   22.2719   33.0507 H   0  0  0  0  0  0  0  0  0  0  0  0  # atno 19310 bound_to 19290
  243.4512   13.0768   39.6105 H   0  0  0  0  0  0  0  0  0  0  0  0  # atno 26091 bound_to 26055
  242.8129   19.7389   31.2033 H   0  0  0  0  0  0  0  0  0  0  0  0  # atno 27195 bound_to 27136
  240.0418   18.0428   33.5950 H   0  0  0  0  0  0  0  0  0  0  0  0  # atno 27199 bound_to 27138
  249.7042   23.2403   34.5527 LP  0  0  0  0  0  0  0  0  0  0  0  0  # atno 27200 bound_to 684 
  249.1396   23.8841   36.0583 LP  0  0  0  0  0  0  0  0  0  0  0  0  # atno 27201 bound_to 684 
  239.5282   20.5342   38.4824 LP  0  0  0  0  0  0  0  0  0  0  0  0  # atno 27202 bound_to 2531
  239.9242   16.4938   41.2655 LP  0  0  0  0  0  0  0  0  0  0  0  0  # atno 27203 bound_to 2534
  239.9548   16.1156   39.5755 LP  0  0  0  0  0  0  0  0  0  0  0  0  # atno 27204 bound_to 2534
  240.4103   19.1775   40.6107 LP  0  0  0  0  0  0  0  0  0  0  0  0  # atno 27205 bound_to 2605
  241.9062   13.5819   39.6801 LP  0  0  0  0  0  0  0  0  0  0  0  0  # atno 27209 bound_to 26055
  242.2595   11.9978   39.8605 LP  0  0  0  0  0  0  0  0  0  0  0  0  # atno 27210 bound_to 26055
  244.0872   19.0239   31.9203 LP  0  0  0  0  0  0  0  0  0  0  0  0  # atno 27213 bound_to 27136
  243.5881   20.4973   32.4170 LP  0  0  0  0  0  0  0  0  0  0  0  0  # atno 27214 bound_to 27136
  244.6289   24.6943   34.8326 LP  0  0  0  0  0  0  0  0  0  0  0  0  # atno 27215 bound_to 681 
  241.6560    7.0350   33.6589 LP  0  0  0  0  0  0  0  0  0  0  0  0  # atno 27226 bound_to 7339
  241.5146    8.5746   34.4396 LP  0  0  0  0  0  0  0  0  0  0  0  0  # atno 27227 bound_to 7339
  239.3080    5.8615   35.0417 LP  0  0  0  0  0  0  0  0  0  0  0  0  # atno 27228 bound_to 7417
  240.7614    4.9338   32.9736 LP  0  0  0  0  0  0  0  0  0  0  0  0  # atno 27229 bound_to 7460
  242.7843    2.5929   32.6589 LP  0  0  0  0  0  0  0  0  0  0  0  0  # atno 27230 bound_to 7515
  252.0547    2.1877   36.7885 LP  0  0  0  0  0  0  0  0  0  0  0  0  # atno 27232 bound_to 17131
  251.9063    2.4589   38.4927 LP  0  0  0  0  0  0  0  0  0  0  0  0  # atno 27233 bound_to 17131
  252.9608    4.4090   37.8875 LP  0  0  0  0  0  0  0  0  0  0  0  0  # atno 27234 bound_to 17178
  250.7815    4.5200   40.5626 LP  0  0  0  0  0  0  0  0  0  0  0  0  # atno 27235 bound_to 17224
  251.1824    2.9770   42.0862 LP  0  0  0  0  0  0  0  0  0  0  0  0  # atno 27236 bound_to 18215
  250.7624    2.6956   40.4296 LP  0  0  0  0  0  0  0  0  0  0  0  0  # atno 27237 bound_to 18215
  250.4581   -0.6590   41.3063 LP  0  0  0  0  0  0  0  0  0  0  0  0  # atno 27238 bound_to 18277
  249.2400   -1.7562   39.5023 LP  0  0  0  0  0  0  0  0  0  0  0  0  # atno 27239 bound_to 18280
  250.4276   -2.5132   38.4940 LP  0  0  0  0  0  0  0  0  0  0  0  0  # atno 27240 bound_to 18280
  250.5165    0.8851   37.1626 LP  0  0  0  0  0  0  0  0  0  0  0  0  # atno 27241 bound_to 18315
  252.3494   -1.4363   36.2146 LP  0  0  0  0  0  0  0  0  0  0  0  0  # atno 27242 bound_to 18318
  252.7643   -1.0787   34.5715 LP  0  0  0  0  0  0  0  0  0  0  0  0  # atno 27243 bound_to 18318
  249.5157   -0.6278   33.6139 LP  0  0  0  0  0  0  0  0  0  0  0  0  # atno 27244 bound_to 18373
  249.3193    1.3241   33.0125 LP  0  0  0  0  0  0  0  0  0  0  0  0  # atno 27245 bound_to 18376
  249.3871    1.9225   31.3885 LP  0  0  0  0  0  0  0  0  0  0  0  0  # atno 27246 bound_to 18376
  252.5752    1.5750   32.0444 LP  0  0  0  0  0  0  0  0  0  0  0  0  # atno 27247 bound_to 18463
  250.0739    4.4549   29.8123 LP  0  0  0  0  0  0  0  0  0  0  0  0  # atno 27248 bound_to 18535
  254.0616    6.4205   40.5855 LP  0  0  0  0  0  0  0  0  0  0  0  0  # atno 27253 bound_to 17181
  253.6794    5.9066   42.1948 LP  0  0  0  0  0  0  0  0  0  0  0  0  # atno 27254 bound_to 17181
  256.5989    3.5226   37.9251 LP  0  0  0  0  0  0  0  0  0  0  0  0  # atno 27255 bound_to 17058
  257.0583    4.4121   36.5116 LP  0  0  0  0  0  0  0  0  0  0  0  0  # atno 27256 bound_to 17058
  250.7270    4.7402   44.7252 LP  0  0  0  0  0  0  0  0  0  0  0  0  # atno 27257 bound_to 17227
  250.3153    4.1952   43.1335 LP  0  0  0  0  0  0  0  0  0  0  0  0  # atno 27258 bound_to 17227
  256.0417    7.4728   33.6488 LP  0  0  0  0  0  0  0  0  0  0  0  0  # atno 27259 bound_to 18474
  254.7311    7.2803   34.6037 LP  0  0  0  0  0  0  0  0  0  0  0  0  # atno 27260 bound_to 18474
  251.5125    7.8914   43.7145 LP  0  0  0  0  0  0  0  0  0  0  0  0  # atno 27261 bound_to 17285
  250.2612    1.7925   44.9629 LP  0  0  0  0  0  0  0  0  0  0  0  0  # atno 27262 bound_to 18212
  253.6919   -1.4199   40.3578 LP  0  0  0  0  0  0  0  0  0  0  0  0  # atno 27263 bound_to 18282
  252.8170   -1.8340   39.0427 LP  0  0  0  0  0  0  0  0  0  0  0  0  # atno 27264 bound_to 18282
  247.1956   -3.7858   36.3440 LP  0  0  0  0  0  0  0  0  0  0  0  0  # atno 27265 bound_to 10098
  247.7420   -5.2602   35.9035 LP  0  0  0  0  0  0  0  0  0  0  0  0  # atno 27266 bound_to 10098
  249.3938   -1.3107   42.7442 LP  0  0  0  0  0  0  0  0  0  0  0  0  # atno 27267 bound_to 10137
  250.2807   -1.8938   41.3755 LP  0  0  0  0  0  0  0  0  0  0  0  0  # atno 27268 bound_to 10137
  251.5800   10.1099   42.7276 LP  0  0  0  0  0  0  0  0  0  0  0  0  # atno 27269 bound_to 11416
  252.3260    8.6005   43.1342 LP  0  0  0  0  0  0  0  0  0  0  0  0  # atno 27270 bound_to 11416
  257.0998    9.9172   35.9369 LP  0  0  0  0  0  0  0  0  0  0  0  0  # atno 27271 bound_to 16966
  256.3431    8.7706   36.8197 LP  0  0  0  0  0  0  0  0  0  0  0  0  # atno 27272 bound_to 16966
  255.3922   10.1875   43.0572 LP  0  0  0  0  0  0  0  0  0  0  0  0  # atno 27273 bound_to 11466
  255.1935    5.9738   42.4895 LP  0  0  0  0  0  0  0  0  0  0  0  0  # atno 27274 bound_to 11531
  257.6961    7.0781   38.4060 LP  0  0  0  0  0  0  0  0  0  0  0  0  # atno 27275 bound_to 11610
  258.2198    8.6142   37.8007 LP  0  0  0  0  0  0  0  0  0  0  0  0  # atno 27276 bound_to 11610
  258.5213    5.8874   41.8440 LP  0  0  0  0  0  0  0  0  0  0  0  0  # atno 27279 bound_to 11607
  255.1863   12.4272   42.3691 LP  0  0  0  0  0  0  0  0  0  0  0  0  # atno 27282 bound_to 11418
  254.3575   13.6555   41.6826 LP  0  0  0  0  0  0  0  0  0  0  0  0  # atno 27283 bound_to 11418
  252.0510   11.4872   30.4473 LP  0  0  0  0  0  0  0  0  0  0  0  0  # atno 27284 bound_to 18693
  253.0475   11.8740   29.0844 LP  0  0  0  0  0  0  0  0  0  0  0  0  # atno 27285 bound_to 18693

> <Gold.Score>
     Fitness  S(hb_ext) S(vdw_ext)  S(hb_int)    S(int)      intcor
     29.57       2.65      19.80       0.00      -0.30      -0.77

> <Gold.Goldscore.Fitness>
29.5738

> <Gold.Goldscore.Internal.Vdw>
-0.5999

> <Gold.Goldscore.Internal.Torsion>
-0.4675

> <Gold.Goldscore.External.Vdw>
19.7979

> <Gold.Goldscore.Internal.HBond>
0.0000

> <Gold.Goldscore.External.HBond>
2.6497

> <Gold.Goldscore.Internal.Correction>
-0.7693

> <Gold.Goldscore.Hbonds>
donor molecule, donor type, donor heavy atom, donor atom, acceptor molecule, acceptor atom, score
      P1  H 11473 11506       L1     9  0.02
      L1  H    10    23       P1 26919  0.44

> <Gold.Goldscore.Internal.Vdw.Weighted>
-0.5999

> <Gold.Goldscore.Internal.Torsion.Weighted>
-0.4675

> <Gold.Goldscore.External.Vdw.Weighted>
27.2222

> <Gold.Goldscore.Internal.HBond.Weighted>
0.0000

> <Gold.Goldscore.External.HBond.Weighted>
2.6497

> <Gold.Goldscore.Internal.Correction.Weighted>
-0.7693

> <Gold.Rescore>
     Score     S(PLP)   S(hbond)     S(cho)   S(metal)  DE(clash)   DE(tors)     intcor
     31.37     -29.40       1.26       0.00       0.00       0.00       0.91       ----

> <Gold.PLP.Fitness>
31.3746

> <Gold.PLP.PLP>
-29.4048

> <Gold.PLP.part.hbond>
-3.0000

> <Gold.PLP.part.metal>
0.0000

> <Gold.PLP.part.buried>
-5.2473

> <Gold.PLP.part.nonpolar>
-23.0325

> <Gold.PLP.part.repulsive>
0.3314

> <Gold.PLP.ligand.clash>
0.0000

> <Gold.PLP.ligand.torsion>
0.9111

> <Gold.PLP.Chemscore.Hbond>
1.2640

> <Gold.PLP.Chemscore.CHOScore>
0.0000

> <Gold.PLP.Chemscore.Metal>
0.0000

> <Gold.Chemscore.Hbonds>
donor molecule, donor type, donor heavy atom, donor atom, acceptor molecule, acceptor atom, score
      L1  H    10    23       P1 26919  0.47
      P1  H 11473 11506       L1     9  0.25

> <Gold.PLP.Chemscore.Internal.Correction>
   9.000000E+99

#       Name:                CT1002167954
#       Creating user name   hitesit
#       Creation time:       Sun Apr 16 23:04:50 2023


#       File generated by GOLD software.
#

@<TRIPOS>MOLECULE
CT1002167954|ligand_prepared|mol2|1|dock7
    29    30     1
SMALL
NO_CHARGES


@<TRIPOS>ATOM
      1 C1         249.9563  12.6250  36.2018 C.3            1 RES1               0.0000
      2 C2         249.6849  11.1234  36.4256 C.ar           1 RES1               0.0000
      3 C3         251.0834  12.7085  35.1766 C.2            1 RES1               0.0000
      4 C4         248.6393  13.2307  35.7292 C.2            1 RES1               0.0000
      5 C5         250.3971  13.3774  37.4789 C.3            1 RES1               0.0000
      6 C6         250.0455  10.1867  35.4616 C.ar           1 RES1               0.0000
      7 C7         249.0782  10.6601  37.5901 C.ar           1 RES1               0.0000
      8 N8         250.7577  13.0938  33.9096 N.am           1 RES1               0.0000
      9 O9         252.2338  12.4029  35.4654 O.2            1 RES1               0.0000
     10 N10        248.5820  13.7267  34.4530 N.am           1 RES1               0.0000
     11 O11        247.6458  13.2680  36.4447 O.2            1 RES1               0.0000
     12 C12        250.9461  14.7700  37.2114 C.3            1 RES1               0.0000
     13 C13        249.8109   8.8356  35.6559 C.ar           1 RES1               0.0000
     14 C14        248.8442   9.3085  37.7822 C.ar           1 RES1               0.0000
     15 C15        249.5724  13.6578  33.5114 C.2            1 RES1               0.0000
     16 C16        249.2106   8.3955  36.8163 C.ar           1 RES1               0.0000
     17 O17        249.4267  14.0777  32.3671 O.2            1 RES1               0.0000
     18 H18        249.5368  13.4608  38.1543 H              1 RES1               0.0000
     19 H19        251.1677  12.7861  37.9889 H              1 RES1               0.0000
     20 H20        250.5167  10.5144  34.5410 H              1 RES1               0.0000
     21 H21        248.7805  11.3603  38.3632 H              1 RES1               0.0000
     22 H22        251.4605  12.9490  33.1916 H              1 RES1               0.0000
     23 H23        247.7213  14.1902  34.1797 H              1 RES1               0.0000
     24 H24        251.2405  15.2536  38.1405 H              1 RES1               0.0000
     25 H25        251.8184  14.7227  36.5628 H              1 RES1               0.0000
     26 H26        250.1972  15.3934  36.7273 H              1 RES1               0.0000
     27 H27        250.0999   8.1212  34.8920 H              1 RES1               0.0000
     28 H28        248.3710   8.9667  38.6968 H              1 RES1               0.0000
     29 H29        249.0273   7.3370  36.9684 H              1 RES1               0.0000
@<TRIPOS>BOND
    1    1    2 1     
    2    1    3 1     
    3    1    4 1     
    4    1    5 1     
    5    2    6 ar    
    6    2    7 ar    
    7    3    8 1     
    8    3    9 2     
    9    4   10 1     
   10    4   11 2     
   11    5   12 1     
   12    5   18 1     
   13    5   19 1     
   14    6   13 ar    
   15    6   20 1     
   16    7   14 ar    
   17    7   21 1     
   18    8   15 1     
   19    8   22 1     
   20   10   15 1     
   21   10   23 1     
   22   12   24 1     
   23   12   25 1     
   24   12   26 1     
   25   13   16 ar    
   26   13   27 1     
   27   14   16 ar    
   28   14   28 1     
   29   15   17 2     
   30   16   29 1     
@<TRIPOS>SUBSTRUCTURE
      1 RES1           1
@<TRIPOS>SET
DONOR_HYDROGENS      STATIC     ATOMS    <user>   **** ""
2 22 23
ATOM$RED        STATIC     ATOMS    COLORGROUP SYSTEM
2 22 23
@<TRIPOS>COMMENT
> <Gold.Version>
2022.3.0

> <Gold.Id.Protein>
unknown|4v3u_clean|pdb

> <Gold.Protein.RotatedTorsions>
[  576  535  534  533 ] final   27.49 input   59.97 | X-H torsion
[ 2566 2531 2532 2533 ] final   -1.75 input  112.83 | X-H torsion
[ 2636 2605 2606 2607 ] final   -9.14 input   41.41 | X-H torsion
[ 26091 26055 26054 26052 ] final  172.71 input   60.03 | X-H torsion
[ 27195 27136 27135 27131 ] final   67.19 input   60.01 | X-H torsion
[  728  681  682  683 ] final   54.29 input  102.19 | X-H torsion
[ 7435 7417 7418 7419 ] final  -12.45 input   81.33 | X-H torsion
[ 7494 7460 7461 7462 ] final  -93.34 input  103.22 | X-H torsion
[ 7528 7515 7516 7517 ] final  -95.72 input   88.53 | X-H torsion
[ 17198 17178 17179 17180 ] final  -53.09 input   47.40 | X-H torsion
[ 17258 17224 17225 17226 ] final    9.15 input  102.98 | X-H torsion
[ 18298 18277 18278 18279 ] final   16.22 input   30.52 | X-H torsion
[ 18328 18315 18316 18317 ] final   -3.55 input   53.77 | X-H torsion
[ 18417 18373 18374 18375 ] final  161.79 input   42.60 | X-H torsion
[ 18502 18463 18464 18465 ] final  147.46 input  104.04 | X-H torsion
[ 18570 18535 18536 18537 ] final -101.36 input   89.36 | X-H torsion
[ 18510 18474 18473 18471 ] final   19.02 input   60.01 | X-H torsion
[ 17306 17285 17286 17287 ] final  120.55 input   49.80 | X-H torsion
[ 18250 18212 18213 18214 ] final  -92.76 input   46.53 | X-H torsion
[ 18302 18282 18281 18278 ] final  -47.38 input   59.98 | X-H torsion
[ 10118 10098 10097 10094 ] final -176.72 input   59.98 | X-H torsion
[ 17002 16966 16965 16963 ] final  -40.03 input   59.99 | X-H torsion
[ 11499 11466 11467 11468 ] final -163.42 input   46.07 | X-H torsion
[ 11572 11531 11532 11533 ] final  150.54 input  118.20 | X-H torsion
[ 11648 11607 11608 11609 ] final  -54.35 input   50.96 | X-H torsion
[ 11438 11418 11417 11414 ] final  -50.84 input   60.01 | X-H torsion
[ 27199 27138 27137 27135 ] final  -87.42 input   60.02 | X-H torsion
[ 19310 19290 19289 19286 ] final   18.05 input   60.00 | X-H torsion
[ 10154 10134 10135 10136 ] final -107.73 input   25.69 | X-H torsion
[ 17361 17335 17336 17337 ] final  116.54 input   65.66 | X-H torsion
[ 27200  684  683  682 ] final  102.75 input    0.00 | X-H torsion
[ 27203 2534 2533 2532 ] final   43.57 input    0.00 | X-H torsion
[ 27226 7339 7338 7337 ] final  -96.76 input    0.00 | X-H torsion
[ 27232 17131 17130 17129 ] final  147.35 input    0.00 | X-H torsion
[ 27236 18215 18214 18213 ] final -129.67 input    0.00 | X-H torsion
[ 27239 18280 18279 18278 ] final   19.87 input    0.00 | X-H torsion
[ 27242 18318 18317 18316 ] final -110.06 input    0.00 | X-H torsion
[ 27245 18376 18375 18374 ] final  161.42 input   -0.00 | X-H torsion
[ 27253 17181 17180 17179 ] final  132.16 input    0.00 | X-H torsion
[ 27255 17058 17057 17056 ] final -154.11 input    0.00 | X-H torsion
[ 27257 17227 17226 17225 ] final  111.09 input   -0.00 | X-H torsion
[ 27267 10137 10136 10135 ] final   -6.59 input    0.00 | X-H torsion
[ 27269 11416 11415 11414 ] final   55.63 input    0.00 | X-H torsion
[ 27275 11610 11609 11608 ] final  155.66 input    0.00 | X-H torsion
[ 27284 18693 18692 18691 ] final   94.40 input    0.00 | X-H torsion

> <Gold.Protein.ActiveResidues>
 LYS309  TRP311  GLU314  MET341  HIS342  TRP414  ALA417  ARG419  CYS420  VAL421 
 GLY422  ARG423  SER462  ALA463  SER482  GLN483  LEU484  ILE485  ARG486  ALA502 
 TRP566  TYR567  LEU569  PRO570  ALA571  VAL572  SER573  ASN574  MET575  PHE589 
 SER590  GLY591  TRP592  TYR593  MET594  GLU597  ILE598  ARG601  ASP602  ASP605 
 SER607  ARG608  TRP683  HIS697  GLU699  TYR711  HEM750  H4B760 

> <Gold.Protein.RotatedAtoms>
  246.3024   24.0055   41.3017 H   0  0  0  0  0  0  0  0  0  0  0  0  # atno 576  bound_to 535 
  247.7490   24.8106   41.2143 H   0  0  0  0  0  0  0  0  0  0  0  0  # atno 577  bound_to 535 
  246.5208   25.4123   42.1501 H   0  0  0  0  0  0  0  0  0  0  0  0  # atno 578  bound_to 535 
  245.3907   24.8017   33.5646 H   0  0  0  0  0  0  0  0  0  0  0  0  # atno 728  bound_to 681 
  238.5780   19.9076   38.8373 H   0  0  0  0  0  0  0  0  0  0  0  0  # atno 2566 bound_to 2531
  238.7898   19.4415   40.4316 H   0  0  0  0  0  0  0  0  0  0  0  0  # atno 2636 bound_to 2605
  239.4296    6.1184   34.8257 H   0  0  0  0  0  0  0  0  0  0  0  0  # atno 7435 bound_to 7417
  240.7385    4.3827   33.2517 H   0  0  0  0  0  0  0  0  0  0  0  0  # atno 7494 bound_to 7460
  241.7697    2.0972   31.4685 H   0  0  0  0  0  0  0  0  0  0  0  0  # atno 7528 bound_to 7515
  246.9796   -4.3885   36.2155 H   0  0  0  0  0  0  0  0  0  0  0  0  # atno 10118 bound_to 10098
  249.1998   -4.5874   39.9605 H   0  0  0  0  0  0  0  0  0  0  0  0  # atno 10154 bound_to 10134
  255.2076   12.6014   42.3971 H   0  0  0  0  0  0  0  0  0  0  0  0  # atno 11438 bound_to 11418
  253.7003   10.1855   42.6087 H   0  0  0  0  0  0  0  0  0  0  0  0  # atno 11499 bound_to 11466
  255.1635    6.0049   42.6070 H   0  0  0  0  0  0  0  0  0  0  0  0  # atno 11572 bound_to 11531
  257.9765    6.9959   41.5703 H   0  0  0  0  0  0  0  0  0  0  0  0  # atno 11648 bound_to 11607
  255.8873    8.7007   35.4803 H   0  0  0  0  0  0  0  0  0  0  0  0  # atno 17002 bound_to 16966
  253.0249    4.7707   38.0094 H   0  0  0  0  0  0  0  0  0  0  0  0  # atno 17198 bound_to 17178
  251.6750    4.3546   41.4181 H   0  0  0  0  0  0  0  0  0  0  0  0  # atno 17258 bound_to 17224
  252.2669    7.0814   43.3714 H   0  0  0  0  0  0  0  0  0  0  0  0  # atno 17306 bound_to 17285
  250.9678    8.8647   45.0605 H   0  0  0  0  0  0  0  0  0  0  0  0  # atno 17361 bound_to 17335
  251.0577    1.8304   44.5569 H   0  0  0  0  0  0  0  0  0  0  0  0  # atno 18250 bound_to 18212
  249.8724   -0.5813   41.0330 H   0  0  0  0  0  0  0  0  0  0  0  0  # atno 18298 bound_to 18277
  252.2247   -1.6030   40.6465 H   0  0  0  0  0  0  0  0  0  0  0  0  # atno 18302 bound_to 18282
  251.2628    0.3249   37.2218 H   0  0  0  0  0  0  0  0  0  0  0  0  # atno 18328 bound_to 18315
  250.4829   -1.4300   34.2722 H   0  0  0  0  0  0  0  0  0  0  0  0  # atno 18417 bound_to 18373
  252.7947    1.4970   31.7830 H   0  0  0  0  0  0  0  0  0  0  0  0  # atno 18502 bound_to 18463
  254.2814    8.0049   34.0177 H   0  0  0  0  0  0  0  0  0  0  0  0  # atno 18510 bound_to 18474
  250.5016    2.8773   29.2833 H   0  0  0  0  0  0  0  0  0  0  0  0  # atno 18570 bound_to 18535
  253.2436   21.2944   33.0029 H   0  0  0  0  0  0  0  0  0  0  0  0  # atno 19310 bound_to 19290
  241.6350   13.1127   39.7703 H   0  0  0  0  0  0  0  0  0  0  0  0  # atno 26091 bound_to 26055
  242.9004   19.5385   31.1541 H   0  0  0  0  0  0  0  0  0  0  0  0  # atno 27195 bound_to 27136
  239.7389   18.1906   33.4058 H   0  0  0  0  0  0  0  0  0  0  0  0  # atno 27199 bound_to 27138
  249.4295   22.8945   34.7541 LP  0  0  0  0  0  0  0  0  0  0  0  0  # atno 27200 bound_to 684 
  249.4143   24.2299   35.8570 LP  0  0  0  0  0  0  0  0  0  0  0  0  # atno 27201 bound_to 684 
  239.4498   20.0289   37.3277 LP  0  0  0  0  0  0  0  0  0  0  0  0  # atno 27202 bound_to 2531
  240.6878   16.2438   39.9887 LP  0  0  0  0  0  0  0  0  0  0  0  0  # atno 27203 bound_to 2534
  239.1912   16.3656   40.8522 LP  0  0  0  0  0  0  0  0  0  0  0  0  # atno 27204 bound_to 2534
  240.3404   18.6353   40.4653 LP  0  0  0  0  0  0  0  0  0  0  0  0  # atno 27205 bound_to 2605
  242.8087   11.9870   39.8122 LP  0  0  0  0  0  0  0  0  0  0  0  0  # atno 27209 bound_to 26055
  243.1869   13.5566   39.5674 LP  0  0  0  0  0  0  0  0  0  0  0  0  # atno 27210 bound_to 26055
  244.1770   19.1487   32.0854 LP  0  0  0  0  0  0  0  0  0  0  0  0  # atno 27213 bound_to 27136
  243.4102   20.5742   32.3015 LP  0  0  0  0  0  0  0  0  0  0  0  0  # atno 27214 bound_to 27136
  245.0331   25.4513   35.1423 LP  0  0  0  0  0  0  0  0  0  0  0  0  # atno 27215 bound_to 681 
  241.1219    7.5981   33.3474 LP  0  0  0  0  0  0  0  0  0  0  0  0  # atno 27226 bound_to 7339
  242.0487    8.0114   34.7510 LP  0  0  0  0  0  0  0  0  0  0  0  0  # atno 27227 bound_to 7339
  240.3801    6.3079   36.2770 LP  0  0  0  0  0  0  0  0  0  0  0  0  # atno 27228 bound_to 7417
  242.3253    4.7722   32.6239 LP  0  0  0  0  0  0  0  0  0  0  0  0  # atno 27229 bound_to 7460
  242.3854    2.4272   33.0720 LP  0  0  0  0  0  0  0  0  0  0  0  0  # atno 27230 bound_to 7515
  252.2483    2.1142   38.4372 LP  0  0  0  0  0  0  0  0  0  0  0  0  # atno 27232 bound_to 17131
  251.7128    2.5324   36.8440 LP  0  0  0  0  0  0  0  0  0  0  0  0  # atno 27233 bound_to 17131
  254.5143    3.9073   38.3053 LP  0  0  0  0  0  0  0  0  0  0  0  0  # atno 27234 bound_to 17178
  251.4680    5.3191   39.9725 LP  0  0  0  0  0  0  0  0  0  0  0  0  # atno 27235 bound_to 17224
  250.5223    2.8046   40.5187 LP  0  0  0  0  0  0  0  0  0  0  0  0  # atno 27236 bound_to 18215
  251.4225    2.8680   41.9971 LP  0  0  0  0  0  0  0  0  0  0  0  0  # atno 27237 bound_to 18215
  250.6073    0.9218   41.5348 LP  0  0  0  0  0  0  0  0  0  0  0  0  # atno 27238 bound_to 18277
  249.8165   -1.8762   39.8245 LP  0  0  0  0  0  0  0  0  0  0  0  0  # atno 27239 bound_to 18280
  249.8511   -2.3932   38.1718 LP  0  0  0  0  0  0  0  0  0  0  0  0  # atno 27240 bound_to 18280
  249.7675    0.0480   38.0886 LP  0  0  0  0  0  0  0  0  0  0  0  0  # atno 27241 bound_to 18315
  252.7806   -0.4275   35.2877 LP  0  0  0  0  0  0  0  0  0  0  0  0  # atno 27242 bound_to 18318
  252.3331   -2.0874   35.4984 LP  0  0  0  0  0  0  0  0  0  0  0  0  # atno 27243 bound_to 18318
  249.8056    0.1733   34.1545 LP  0  0  0  0  0  0  0  0  0  0  0  0  # atno 27244 bound_to 18373
  249.5938    2.3946   31.8889 LP  0  0  0  0  0  0  0  0  0  0  0  0  # atno 27245 bound_to 18376
  249.1125    0.8520   32.5122 LP  0  0  0  0  0  0  0  0  0  0  0  0  # atno 27246 bound_to 18376
  251.2113    0.9166   31.3084 LP  0  0  0  0  0  0  0  0  0  0  0  0  # atno 27247 bound_to 18463
  249.7901    4.3471   29.9067 LP  0  0  0  0  0  0  0  0  0  0  0  0  # atno 27248 bound_to 18535
  253.4128    6.8326   41.0855 LP  0  0  0  0  0  0  0  0  0  0  0  0  # atno 27253 bound_to 17181
  254.3282    5.4945   41.6949 LP  0  0  0  0  0  0  0  0  0  0  0  0  # atno 27254 bound_to 17181
  256.0528    4.1921   37.5310 LP  0  0  0  0  0  0  0  0  0  0  0  0  # atno 27255 bound_to 17058
  257.6043    3.7426   36.9057 LP  0  0  0  0  0  0  0  0  0  0  0  0  # atno 27256 bound_to 17058
  251.3518    4.2655   44.0678 LP  0  0  0  0  0  0  0  0  0  0  0  0  # atno 27257 bound_to 17227
  249.6905    4.6699   43.7909 LP  0  0  0  0  0  0  0  0  0  0  0  0  # atno 27258 bound_to 17227
  255.6716    8.0643   33.1739 LP  0  0  0  0  0  0  0  0  0  0  0  0  # atno 27259 bound_to 18474
  255.5230    7.0404   34.4374 LP  0  0  0  0  0  0  0  0  0  0  0  0  # atno 27260 bound_to 18474
  250.5671    7.0082   43.7613 LP  0  0  0  0  0  0  0  0  0  0  0  0  # atno 27261 bound_to 17285
  249.7308    2.8584   44.0743 LP  0  0  0  0  0  0  0  0  0  0  0  0  # atno 27262 bound_to 18212
  253.7676   -1.4489   40.1537 LP  0  0  0  0  0  0  0  0  0  0  0  0  # atno 27263 bound_to 18282
  252.6033   -1.8609   39.0854 LP  0  0  0  0  0  0  0  0  0  0  0  0  # atno 27264 bound_to 18282
  248.3836   -5.1326   35.8646 LP  0  0  0  0  0  0  0  0  0  0  0  0  # atno 27265 bound_to 10098
  248.3740   -3.5515   36.2726 LP  0  0  0  0  0  0  0  0  0  0  0  0  # atno 27266 bound_to 10098
  250.1527   -1.9173   41.3174 LP  0  0  0  0  0  0  0  0  0  0  0  0  # atno 27267 bound_to 10137
  249.5217   -1.2872   42.8022 LP  0  0  0  0  0  0  0  0  0  0  0  0  # atno 27268 bound_to 10137
  251.6130   10.0825   42.6061 LP  0  0  0  0  0  0  0  0  0  0  0  0  # atno 27269 bound_to 11416
  252.2930    8.6279   43.2557 LP  0  0  0  0  0  0  0  0  0  0  0  0  # atno 27270 bound_to 11416
  256.9823    9.8988   35.5951 LP  0  0  0  0  0  0  0  0  0  0  0  0  # atno 27271 bound_to 16966
  256.5903    9.0180   36.9130 LP  0  0  0  0  0  0  0  0  0  0  0  0  # atno 27272 bound_to 16966
  255.3799   10.1642   43.1039 LP  0  0  0  0  0  0  0  0  0  0  0  0  # atno 27273 bound_to 11466
  256.1771    7.3388   42.1112 LP  0  0  0  0  0  0  0  0  0  0  0  0  # atno 27274 bound_to 11531
  257.8585    8.7037   38.1724 LP  0  0  0  0  0  0  0  0  0  0  0  0  # atno 27275 bound_to 11610
  258.0573    6.9886   38.0344 LP  0  0  0  0  0  0  0  0  0  0  0  0  # atno 27276 bound_to 11610
  257.9952    5.3821   40.9008 LP  0  0  0  0  0  0  0  0  0  0  0  0  # atno 27279 bound_to 11607
  254.2303   13.6045   41.5686 LP  0  0  0  0  0  0  0  0  0  0  0  0  # atno 27282 bound_to 11418
  254.0894   11.9878   41.3866 LP  0  0  0  0  0  0  0  0  0  0  0  0  # atno 27283 bound_to 11418
  252.8101   11.2631   30.4783 LP  0  0  0  0  0  0  0  0  0  0  0  0  # atno 27284 bound_to 18693
  252.2884   12.0982   29.0534 LP  0  0  0  0  0  0  0  0  0  0  0  0  # atno 27285 bound_to 18693

> <Gold.Score>
     Fitness  S(hb_ext) S(vdw_ext)  S(hb_int)    S(int)      intcor
     29.50       7.00      17.13       0.00      -1.06      -0.77

> <Gold.Goldscore.Fitness>
29.4961

> <Gold.Goldscore.Internal.Vdw>
-1.2226

> <Gold.Goldscore.Internal.Torsion>
-0.6079

> <Gold.Goldscore.External.Vdw>
17.1322

> <Gold.Goldscore.Internal.HBond>
0.0000

> <Gold.Goldscore.External.HBond>
7.0005

> <Gold.Goldscore.Internal.Correction>
-0.7693

> <Gold.Goldscore.Hbonds>
donor molecule, donor type, donor heavy atom, donor atom, acceptor molecule, acceptor atom, score
      L1  H     8    22       P1 19017  0.17
      L1  H    10    23       P1 27129  1.00

> <Gold.Goldscore.Internal.Vdw.Weighted>
-1.2226

> <Gold.Goldscore.Internal.Torsion.Weighted>
-0.6079

> <Gold.Goldscore.External.Vdw.Weighted>
23.5568

> <Gold.Goldscore.Internal.HBond.Weighted>
0.0000

> <Gold.Goldscore.External.HBond.Weighted>
7.0005

> <Gold.Goldscore.Internal.Correction.Weighted>
-0.7693

> <Gold.Rescore>
     Score     S(PLP)   S(hbond)     S(cho)   S(metal)  DE(clash)   DE(tors)     intcor
     21.08     -18.45       1.58       0.00       0.00       0.00       1.06       ----

> <Gold.PLP.Fitness>
21.0828

> <Gold.PLP.PLP>
-18.4544

> <Gold.PLP.part.hbond>
-2.9683

> <Gold.PLP.part.metal>
0.0000

> <Gold.PLP.part.buried>
-5.2654

> <Gold.PLP.part.nonpolar>
-15.0302

> <Gold.PLP.part.repulsive>
3.6834

> <Gold.PLP.ligand.clash>
0.0000

> <Gold.PLP.ligand.torsion>
1.0607

> <Gold.PLP.Chemscore.Hbond>
1.5833

> <Gold.PLP.Chemscore.CHOScore>
0.0000

> <Gold.PLP.Chemscore.Metal>
0.0000

> <Gold.Chemscore.Hbonds>
donor molecule, donor type, donor heavy atom, donor atom, acceptor molecule, acceptor atom, score
      L1  H    10    23       P1 27129  0.44

> <Gold.PLP.Chemscore.Internal.Correction>
   9.000000E+99

#       Name:                CT1002167954
#       Creating user name   hitesit
#       Creation time:       Sun Apr 16 23:04:52 2023


#       File generated by GOLD software.
#

@<TRIPOS>MOLECULE
CT1002167954|ligand_prepared|mol2|1|dock9
    29    30     1
SMALL
NO_CHARGES


@<TRIPOS>ATOM
      1 C1         250.0327   8.3993  36.8396 C.3            1 RES1               0.0000
      2 C2         249.7687   9.4874  37.9004 C.ar           1 RES1               0.0000
      3 C3         250.3178   9.1347  35.5334 C.2            1 RES1               0.0000
      4 C4         251.2054   7.5740  37.3576 C.2            1 RES1               0.0000
      5 C5         248.8382   7.4433  36.6145 C.3            1 RES1               0.0000
      6 C6         248.5241  10.1037  37.9888 C.ar           1 RES1               0.0000
      7 C7         250.7574   9.8828  38.7975 C.ar           1 RES1               0.0000
      8 N8         251.6085   9.1650  35.0940 N.am           1 RES1               0.0000
      9 O9         249.4300   9.7129  34.9187 O.2            1 RES1               0.0000
     10 N10        252.3797   7.6137  36.6525 N.am           1 RES1               0.0000
     11 O11        251.1282   6.9028  38.3793 O.2            1 RES1               0.0000
     12 C12        249.1969   6.1860  35.8382 C.3            1 RES1               0.0000
     13 C13        248.2758  11.0778  38.9415 C.ar           1 RES1               0.0000
     14 C14        250.5070  10.8574  39.7494 C.ar           1 RES1               0.0000
     15 C15        252.6438   8.3959  35.5613 C.2            1 RES1               0.0000
     16 C16        249.2668  11.4550  39.8226 C.ar           1 RES1               0.0000
     17 O17        253.7424   8.4175  35.0139 O.2            1 RES1               0.0000
     18 H18        248.4306   7.1516  37.5903 H              1 RES1               0.0000
     19 H19        248.0525   7.9820  36.0705 H              1 RES1               0.0000
     20 H20        247.7328   9.8216  37.3024 H              1 RES1               0.0000
     21 H21        251.7409   9.4270  38.7577 H              1 RES1               0.0000
     22 H22        251.8239   9.8202  34.3493 H              1 RES1               0.0000
     23 H23        253.1260   7.0036  36.9703 H              1 RES1               0.0000
     24 H24        248.3235   5.5505  35.7083 H              1 RES1               0.0000
     25 H25        249.5822   6.4381  34.8524 H              1 RES1               0.0000
     26 H26        249.9582   5.6126  36.3632 H              1 RES1               0.0000
     27 H27        247.2985  11.5461  38.9941 H              1 RES1               0.0000
     28 H28        251.2901  11.1515  40.4404 H              1 RES1               0.0000
     29 H29        249.0719  12.2179  40.5691 H              1 RES1               0.0000
@<TRIPOS>BOND
    1    1    2 1     
    2    1    3 1     
    3    1    4 1     
    4    1    5 1     
    5    2    6 ar    
    6    2    7 ar    
    7    3    8 1     
    8    3    9 2     
    9    4   10 1     
   10    4   11 2     
   11    5   12 1     
   12    5   18 1     
   13    5   19 1     
   14    6   13 ar    
   15    6   20 1     
   16    7   14 ar    
   17    7   21 1     
   18    8   15 1     
   19    8   22 1     
   20   10   15 1     
   21   10   23 1     
   22   12   24 1     
   23   12   25 1     
   24   12   26 1     
   25   13   16 ar    
   26   13   27 1     
   27   14   16 ar    
   28   14   28 1     
   29   15   17 2     
   30   16   29 1     
@<TRIPOS>SUBSTRUCTURE
      1 RES1           1
@<TRIPOS>SET
DONOR_HYDROGENS      STATIC     ATOMS    <user>   **** ""
2 22 23
ATOM$RED        STATIC     ATOMS    COLORGROUP SYSTEM
2 22 23
@<TRIPOS>COMMENT
> <Gold.Version>
2022.3.0

> <Gold.Id.Protein>
unknown|4v3u_clean|pdb

> <Gold.Protein.RotatedTorsions>
[  576  535  534  533 ] final  -46.32 input   59.97 | X-H torsion
[ 2566 2531 2532 2533 ] final  161.02 input  112.83 | X-H torsion
[ 2636 2605 2606 2607 ] final -153.77 input   41.41 | X-H torsion
[ 26091 26055 26054 26052 ] final  -53.55 input   60.03 | X-H torsion
[ 27195 27136 27135 27131 ] final   70.43 input   60.01 | X-H torsion
[  728  681  682  683 ] final   51.63 input  102.19 | X-H torsion
[ 7435 7417 7418 7419 ] final    1.41 input   81.33 | X-H torsion
[ 7494 7460 7461 7462 ] final  -30.19 input  103.22 | X-H torsion
[ 7528 7515 7516 7517 ] final   -0.76 input   88.53 | X-H torsion
[ 17198 17178 17179 17180 ] final  168.61 input   47.40 | X-H torsion
[ 17258 17224 17225 17226 ] final -120.01 input  102.98 | X-H torsion
[ 18298 18277 18278 18279 ] final -142.07 input   30.52 | X-H torsion
[ 18328 18315 18316 18317 ] final  -58.91 input   53.77 | X-H torsion
[ 18417 18373 18374 18375 ] final -170.61 input   42.60 | X-H torsion
[ 18502 18463 18464 18465 ] final   35.13 input  104.04 | X-H torsion
[ 18570 18535 18536 18537 ] final   25.01 input   89.36 | X-H torsion
[ 18510 18474 18473 18471 ] final   28.93 input   60.01 | X-H torsion
[ 17306 17285 17286 17287 ] final  -82.26 input   49.80 | X-H torsion
[ 18250 18212 18213 18214 ] final  157.47 input   46.53 | X-H torsion
[ 18302 18282 18281 18278 ] final  113.79 input   59.98 | X-H torsion
[ 10118 10098 10097 10094 ] final  -79.74 input   59.98 | X-H torsion
[ 17002 16966 16965 16963 ] final -114.56 input   59.99 | X-H torsion
[ 11499 11466 11467 11468 ] final -173.78 input   46.07 | X-H torsion
[ 11572 11531 11532 11533 ] final   46.22 input  118.20 | X-H torsion
[ 11648 11607 11608 11609 ] final -176.07 input   50.96 | X-H torsion
[ 11438 11418 11417 11414 ] final  153.48 input   60.01 | X-H torsion
[ 27199 27138 27137 27135 ] final -167.03 input   60.02 | X-H torsion
[ 19310 19290 19289 19286 ] final  -41.79 input   60.00 | X-H torsion
[ 10154 10134 10135 10136 ] final   69.13 input   25.69 | X-H torsion
[ 17361 17335 17336 17337 ] final   56.79 input   65.66 | X-H torsion
[ 27200  684  683  682 ] final   59.95 input    0.00 | X-H torsion
[ 27203 2534 2533 2532 ] final   -4.63 input    0.00 | X-H torsion
[ 27226 7339 7338 7337 ] final   31.84 input    0.00 | X-H torsion
[ 27232 17131 17130 17129 ] final -131.26 input    0.00 | X-H torsion
[ 27236 18215 18214 18213 ] final -101.88 input    0.00 | X-H torsion
[ 27239 18280 18279 18278 ] final  -28.42 input    0.00 | X-H torsion
[ 27242 18318 18317 18316 ] final  -40.07 input    0.00 | X-H torsion
[ 27245 18376 18375 18374 ] final  -93.65 input   -0.00 | X-H torsion
[ 27253 17181 17180 17179 ] final -137.52 input    0.00 | X-H torsion
[ 27255 17058 17057 17056 ] final  -41.68 input    0.00 | X-H torsion
[ 27257 17227 17226 17225 ] final  -51.13 input   -0.00 | X-H torsion
[ 27267 10137 10136 10135 ] final  132.65 input    0.00 | X-H torsion
[ 27269 11416 11415 11414 ] final  -68.84 input    0.00 | X-H torsion
[ 27275 11610 11609 11608 ] final  -36.04 input    0.00 | X-H torsion
[ 27284 18693 18692 18691 ] final -145.86 input    0.00 | X-H torsion

> <Gold.Protein.ActiveResidues>
 LYS309  TRP311  GLU314  MET341  HIS342  TRP414  ALA417  ARG419  CYS420  VAL421 
 GLY422  ARG423  SER462  ALA463  SER482  GLN483  LEU484  ILE485  ARG486  ALA502 
 TRP566  TYR567  LEU569  PRO570  ALA571  VAL572  SER573  ASN574  MET575  PHE589 
 SER590  GLY591  TRP592  TYR593  MET594  GLU597  ILE598  ARG601  ASP602  ASP605 
 SER607  ARG608  TRP683  HIS697  GLU699  TYR711  HEM750  H4B760 

> <Gold.Protein.RotatedAtoms>
  246.0221   24.8711   42.0040 H   0  0  0  0  0  0  0  0  0  0  0  0  # atno 576  bound_to 535 
  246.9855   23.9819   40.9894 H   0  0  0  0  0  0  0  0  0  0  0  0  # atno 577  bound_to 535 
  247.5654   25.3758   41.6727 H   0  0  0  0  0  0  0  0  0  0  0  0  # atno 578  bound_to 535 
  245.4170   24.8322   33.5590 H   0  0  0  0  0  0  0  0  0  0  0  0  # atno 728  bound_to 681 
  239.6074   20.1961   37.4547 H   0  0  0  0  0  0  0  0  0  0  0  0  # atno 2566 bound_to 2531
  239.9893   18.2621   40.3245 H   0  0  0  0  0  0  0  0  0  0  0  0  # atno 2636 bound_to 2605
  239.3382    5.9623   34.9367 H   0  0  0  0  0  0  0  0  0  0  0  0  # atno 7435 bound_to 7417
  241.4615    3.8053   33.3608 H   0  0  0  0  0  0  0  0  0  0  0  0  # atno 7494 bound_to 7460
  241.3672    1.9527   32.7035 H   0  0  0  0  0  0  0  0  0  0  0  0  # atno 7528 bound_to 7515
  248.0181   -3.4544   36.3398 H   0  0  0  0  0  0  0  0  0  0  0  0  # atno 10118 bound_to 10098
  250.6213   -3.5403   39.9731 H   0  0  0  0  0  0  0  0  0  0  0  0  # atno 10154 bound_to 10134
  253.9072   13.2305   41.2735 H   0  0  0  0  0  0  0  0  0  0  0  0  # atno 11438 bound_to 11418
  253.7560   10.2547   42.4744 H   0  0  0  0  0  0  0  0  0  0  0  0  # atno 11499 bound_to 11466
  255.9078    6.4805   41.5282 H   0  0  0  0  0  0  0  0  0  0  0  0  # atno 11572 bound_to 11531
  258.4575    5.5307   41.5997 H   0  0  0  0  0  0  0  0  0  0  0  0  # atno 11648 bound_to 11607
  256.5430    9.5563   35.1293 H   0  0  0  0  0  0  0  0  0  0  0  0  # atno 17002 bound_to 16966
  254.0972    3.5176   38.0580 H   0  0  0  0  0  0  0  0  0  0  0  0  # atno 17198 bound_to 17178
  252.1300    5.4263   40.3120 H   0  0  0  0  0  0  0  0  0  0  0  0  # atno 17258 bound_to 17224
  250.6182    6.6767   43.6785 H   0  0  0  0  0  0  0  0  0  0  0  0  # atno 17306 bound_to 17285
  250.1583    8.5257   44.9933 H   0  0  0  0  0  0  0  0  0  0  0  0  # atno 17361 bound_to 17335
  249.6836    2.1835   44.8170 H   0  0  0  0  0  0  0  0  0  0  0  0  # atno 18250 bound_to 18212
  250.3283    1.0473   41.4126 H   0  0  0  0  0  0  0  0  0  0  0  0  # atno 18298 bound_to 18277
  253.2524   -1.7431   39.1189 H   0  0  0  0  0  0  0  0  0  0  0  0  # atno 18302 bound_to 18282
  251.2225   -0.3359   37.7165 H   0  0  0  0  0  0  0  0  0  0  0  0  # atno 18328 bound_to 18315
  250.7016   -1.2084   34.5522 H   0  0  0  0  0  0  0  0  0  0  0  0  # atno 18417 bound_to 18373
  252.0047    0.7720   30.7584 H   0  0  0  0  0  0  0  0  0  0  0  0  # atno 18502 bound_to 18463
  254.2798    7.8994   34.1402 H   0  0  0  0  0  0  0  0  0  0  0  0  # atno 18510 bound_to 18474
  250.5182    4.4216   29.6124 H   0  0  0  0  0  0  0  0  0  0  0  0  # atno 18570 bound_to 18535
  252.5596   21.5651   32.4280 H   0  0  0  0  0  0  0  0  0  0  0  0  # atno 19310 bound_to 19290
  243.3247   13.3795   39.5814 H   0  0  0  0  0  0  0  0  0  0  0  0  # atno 26091 bound_to 26055
  242.8764   19.5852   31.1622 H   0  0  0  0  0  0  0  0  0  0  0  0  # atno 27195 bound_to 27136
  239.1996   19.2471   33.5780 H   0  0  0  0  0  0  0  0  0  0  0  0  # atno 27199 bound_to 27138
  249.0791   22.7680   35.2646 LP  0  0  0  0  0  0  0  0  0  0  0  0  # atno 27200 bound_to 684 
  249.7647   24.3564   35.3465 LP  0  0  0  0  0  0  0  0  0  0  0  0  # atno 27201 bound_to 684 
  238.4439   19.7470   38.6787 LP  0  0  0  0  0  0  0  0  0  0  0  0  # atno 27202 bound_to 2531
  240.1147   16.1269   39.5912 LP  0  0  0  0  0  0  0  0  0  0  0  0  # atno 27203 bound_to 2534
  239.7644   16.4825   41.2497 LP  0  0  0  0  0  0  0  0  0  0  0  0  # atno 27204 bound_to 2534
  239.1697   19.7864   40.5698 LP  0  0  0  0  0  0  0  0  0  0  0  0  # atno 27205 bound_to 2605
  241.7059   13.3227   39.7330 LP  0  0  0  0  0  0  0  0  0  0  0  0  # atno 27209 bound_to 26055
  242.5873   11.9520   39.8370 LP  0  0  0  0  0  0  0  0  0  0  0  0  # atno 27210 bound_to 26055
  244.1591   19.1157   32.0473 LP  0  0  0  0  0  0  0  0  0  0  0  0  # atno 27213 bound_to 27136
  243.4522   20.5601   32.3314 LP  0  0  0  0  0  0  0  0  0  0  0  0  # atno 27214 bound_to 27136
  245.0070   25.4211   35.1478 LP  0  0  0  0  0  0  0  0  0  0  0  0  # atno 27215 bound_to 681 
  241.5805    8.5432   34.5017 LP  0  0  0  0  0  0  0  0  0  0  0  0  # atno 27226 bound_to 7339
  241.5901    7.0663   33.5968 LP  0  0  0  0  0  0  0  0  0  0  0  0  # atno 27227 bound_to 7339
  240.4701    6.4616   36.1677 LP  0  0  0  0  0  0  0  0  0  0  0  0  # atno 27228 bound_to 7417
  241.6260    5.3307   32.5184 LP  0  0  0  0  0  0  0  0  0  0  0  0  # atno 27229 bound_to 7460
  242.7769    2.5677   31.8706 LP  0  0  0  0  0  0  0  0  0  0  0  0  # atno 27230 bound_to 7515
  251.4740    2.8608   38.0929 LP  0  0  0  0  0  0  0  0  0  0  0  0  # atno 27232 bound_to 17131
  252.4870    1.7858   37.1883 LP  0  0  0  0  0  0  0  0  0  0  0  0  # atno 27233 bound_to 17131
  253.4649    5.1337   38.2578 LP  0  0  0  0  0  0  0  0  0  0  0  0  # atno 27234 bound_to 17178
  251.0273    4.2811   41.0437 LP  0  0  0  0  0  0  0  0  0  0  0  0  # atno 27235 bound_to 17224
  250.2554    2.9709   40.7912 LP  0  0  0  0  0  0  0  0  0  0  0  0  # atno 27236 bound_to 18215
  251.6894    2.7017   41.7246 LP  0  0  0  0  0  0  0  0  0  0  0  0  # atno 27237 bound_to 18215
  250.1607   -0.6734   41.1630 LP  0  0  0  0  0  0  0  0  0  0  0  0  # atno 27238 bound_to 18277
  250.4300   -2.1691   39.6253 LP  0  0  0  0  0  0  0  0  0  0  0  0  # atno 27239 bound_to 18280
  249.2376   -2.1003   38.3710 LP  0  0  0  0  0  0  0  0  0  0  0  0  # atno 27240 bound_to 18280
  249.8065    0.6876   37.6098 LP  0  0  0  0  0  0  0  0  0  0  0  0  # atno 27241 bound_to 18315
  252.5083   -0.8390   36.1497 LP  0  0  0  0  0  0  0  0  0  0  0  0  # atno 27242 bound_to 18318
  252.6055   -1.6759   34.6364 LP  0  0  0  0  0  0  0  0  0  0  0  0  # atno 27243 bound_to 18318
  249.5895   -0.0456   33.8780 LP  0  0  0  0  0  0  0  0  0  0  0  0  # atno 27244 bound_to 18373
  249.1324    1.1598   31.5031 LP  0  0  0  0  0  0  0  0  0  0  0  0  # atno 27245 bound_to 18376
  249.5739    2.0868   32.8980 LP  0  0  0  0  0  0  0  0  0  0  0  0  # atno 27246 bound_to 18376
  251.9715    1.6142   32.2943 LP  0  0  0  0  0  0  0  0  0  0  0  0  # atno 27247 bound_to 18463
  249.7739    2.8404   29.5856 LP  0  0  0  0  0  0  0  0  0  0  0  0  # atno 27248 bound_to 18535
  253.4363    6.2012   42.1386 LP  0  0  0  0  0  0  0  0  0  0  0  0  # atno 27253 bound_to 17181
  254.3046    6.1259   40.6418 LP  0  0  0  0  0  0  0  0  0  0  0  0  # atno 27254 bound_to 17181
  257.2049    3.3429   37.6857 LP  0  0  0  0  0  0  0  0  0  0  0  0  # atno 27255 bound_to 17058
  256.4522    4.5918   36.7510 LP  0  0  0  0  0  0  0  0  0  0  0  0  # atno 27256 bound_to 17058
  249.7444    4.5535   43.5561 LP  0  0  0  0  0  0  0  0  0  0  0  0  # atno 27257 bound_to 17227
  251.2979    4.3819   44.3026 LP  0  0  0  0  0  0  0  0  0  0  0  0  # atno 27258 bound_to 17227
  255.5399    8.1551   33.1429 LP  0  0  0  0  0  0  0  0  0  0  0  0  # atno 27259 bound_to 18474
  255.6563    7.0560   34.3450 LP  0  0  0  0  0  0  0  0  0  0  0  0  # atno 27260 bound_to 18474
  252.1887    7.4063   43.4593 LP  0  0  0  0  0  0  0  0  0  0  0  0  # atno 27261 bound_to 17285
  251.0789    2.5119   43.8191 LP  0  0  0  0  0  0  0  0  0  0  0  0  # atno 27262 bound_to 18212
  251.9370   -1.7701   40.0759 LP  0  0  0  0  0  0  0  0  0  0  0  0  # atno 27263 bound_to 18282
  253.3986   -1.3986   40.7022 LP  0  0  0  0  0  0  0  0  0  0  0  0  # atno 27264 bound_to 18282
  247.0496   -4.7425   36.1141 LP  0  0  0  0  0  0  0  0  0  0  0  0  # atno 27265 bound_to 10098
  248.6622   -4.8821   35.8980 LP  0  0  0  0  0  0  0  0  0  0  0  0  # atno 27266 bound_to 10098
  249.0717   -1.4404   42.4311 LP  0  0  0  0  0  0  0  0  0  0  0  0  # atno 27267 bound_to 10137
  250.6028   -1.7641   41.6886 LP  0  0  0  0  0  0  0  0  0  0  0  0  # atno 27268 bound_to 10137
  251.9410    9.1405   43.7698 LP  0  0  0  0  0  0  0  0  0  0  0  0  # atno 27269 bound_to 11416
  251.9650    9.5699   42.0920 LP  0  0  0  0  0  0  0  0  0  0  0  0  # atno 27270 bound_to 11416
  257.0117    9.5678   36.6875 LP  0  0  0  0  0  0  0  0  0  0  0  0  # atno 27271 bound_to 16966
  255.9003    8.4871   36.1741 LP  0  0  0  0  0  0  0  0  0  0  0  0  # atno 27272 bound_to 16966
  255.3262   10.0975   43.2334 LP  0  0  0  0  0  0  0  0  0  0  0  0  # atno 27273 bound_to 11466
  255.4483    6.8731   43.1675 LP  0  0  0  0  0  0  0  0  0  0  0  0  # atno 27274 bound_to 11531
  258.1754    7.0305   37.9100 LP  0  0  0  0  0  0  0  0  0  0  0  0  # atno 27275 bound_to 11610
  257.7404    8.6618   38.2967 LP  0  0  0  0  0  0  0  0  0  0  0  0  # atno 27276 bound_to 11610
  257.5244    6.8163   40.8721 LP  0  0  0  0  0  0  0  0  0  0  0  0  # atno 27279 bound_to 11607
  254.4999   11.7892   41.7413 LP  0  0  0  0  0  0  0  0  0  0  0  0  # atno 27282 bound_to 11418
  255.1296   13.1694   42.3457 LP  0  0  0  0  0  0  0  0  0  0  0  0  # atno 27283 bound_to 11418
  253.1136   11.8350   29.1274 LP  0  0  0  0  0  0  0  0  0  0  0  0  # atno 27284 bound_to 18693
  251.9849   11.5263   30.4044 LP  0  0  0  0  0  0  0  0  0  0  0  0  # atno 27285 bound_to 18693

> <Gold.Score>
     Fitness  S(hb_ext) S(vdw_ext)  S(hb_int)    S(int)      intcor
     28.57       0.85      20.87       0.00      -0.98      -0.77

> <Gold.Goldscore.Fitness>
28.5745

> <Gold.Goldscore.Internal.Vdw>
-1.0811

> <Gold.Goldscore.Internal.Torsion>
-0.6669

> <Gold.Goldscore.External.Vdw>
20.8749

> <Gold.Goldscore.Internal.HBond>
0.0000

> <Gold.Goldscore.External.HBond>
0.8502

> <Gold.Goldscore.Internal.Correction>
-0.7693

> <Gold.Goldscore.Hbonds>
donor molecule, donor type, donor heavy atom, donor atom, acceptor molecule, acceptor atom, score
      P1  H 18474 18510       L1    17  0.43

> <Gold.Goldscore.Internal.Vdw.Weighted>
-1.0811

> <Gold.Goldscore.Internal.Torsion.Weighted>
-0.6669

> <Gold.Goldscore.External.Vdw.Weighted>
28.7029

> <Gold.Goldscore.Internal.HBond.Weighted>
0.0000

> <Gold.Goldscore.External.HBond.Weighted>
0.8502

> <Gold.Goldscore.Internal.Correction.Weighted>
-0.7693

> <Gold.Rescore>
     Score     S(PLP)   S(hbond)     S(cho)   S(metal)  DE(clash)   DE(tors)     intcor
     17.51     -17.02       1.00       0.00       0.00       1.21       0.65       ----

> <Gold.PLP.Fitness>
17.5065

> <Gold.PLP.PLP>
-17.0196

> <Gold.PLP.part.hbond>
-2.0000

> <Gold.PLP.part.metal>
0.0000

> <Gold.PLP.part.buried>
2.7075

> <Gold.PLP.part.nonpolar>
-25.7154

> <Gold.PLP.part.repulsive>
6.5654

> <Gold.PLP.ligand.clash>
1.2066

> <Gold.PLP.ligand.torsion>
0.6532

> <Gold.PLP.Chemscore.Hbond>
1.0000

> <Gold.PLP.Chemscore.CHOScore>
0.0000

> <Gold.PLP.Chemscore.Metal>
0.0000

> <Gold.PLP.Chemscore.Internal.Correction>
   9.000000E+99

#       Name:                CT1002167954
#       Creating user name   hitesit
#       Creation time:       Sun Apr 16 23:04:48 2023


#       File generated by GOLD software.
#

@<TRIPOS>MOLECULE
CT1002167954|ligand_prepared|mol2|1|dock4
    29    30     1
SMALL
NO_CHARGES


@<TRIPOS>ATOM
      1 C1         249.9796  13.8158  35.5514 C.3            1 RES1               0.0000
      2 C2         250.2137  12.3492  35.1355 C.ar           1 RES1               0.0000
      3 C3         248.8036  14.3153  34.7172 C.2            1 RES1               0.0000
      4 C4         249.7137  13.7963  37.0526 C.2            1 RES1               0.0000
      5 C5         251.1926  14.7397  35.2931 C.3            1 RES1               0.0000
      6 C6         250.9152  12.0457  33.9725 C.ar           1 RES1               0.0000
      7 C7         249.7373  11.2908  35.9046 C.ar           1 RES1               0.0000
      8 N8         247.6042  14.4729  35.3468 N.am           1 RES1               0.0000
      9 O9         248.9173  14.5297  33.5167 O.2            1 RES1               0.0000
     10 N10        248.4683  14.1658  37.4889 N.am           1 RES1               0.0000
     11 O11        250.5661  13.4483  37.8604 O.2            1 RES1               0.0000
     12 C12        251.0797  16.1010  35.9611 C.3            1 RES1               0.0000
     13 C13        251.1351  10.7318  33.5936 C.ar           1 RES1               0.0000
     14 C14        249.9582   9.9775  35.5237 C.ar           1 RES1               0.0000
     15 C15        247.3921  14.4737  36.7021 C.2            1 RES1               0.0000
     16 C16        250.6573   9.6970  34.3690 C.ar           1 RES1               0.0000
     17 O17        246.2885  14.7432  37.1675 O.2            1 RES1               0.0000
     18 H18        252.0996  14.2417  35.6574 H              1 RES1               0.0000
     19 H19        251.3015  14.8853  34.2113 H              1 RES1               0.0000
     20 H20        251.2967  12.8469  33.3484 H              1 RES1               0.0000
     21 H21        249.1838  11.4878  36.8164 H              1 RES1               0.0000
     22 H22        246.7895  14.6020  34.7552 H              1 RES1               0.0000
     23 H23        248.3309  14.2160  38.4934 H              1 RES1               0.0000
     24 H24        251.9563  16.7092  35.7479 H              1 RES1               0.0000
     25 H25        250.2017  16.6347  35.6031 H              1 RES1               0.0000
     26 H26        250.9951  15.9951  37.0407 H              1 RES1               0.0000
     27 H27        251.6847  10.5164  32.6832 H              1 RES1               0.0000
     28 H28        249.5797   9.1662  36.1367 H              1 RES1               0.0000
     29 H29        250.8300   8.6678  34.0721 H              1 RES1               0.0000
@<TRIPOS>BOND
    1    1    2 1     
    2    1    3 1     
    3    1    4 1     
    4    1    5 1     
    5    2    6 ar    
    6    2    7 ar    
    7    3    8 1     
    8    3    9 2     
    9    4   10 1     
   10    4   11 2     
   11    5   12 1     
   12    5   18 1     
   13    5   19 1     
   14    6   13 ar    
   15    6   20 1     
   16    7   14 ar    
   17    7   21 1     
   18    8   15 1     
   19    8   22 1     
   20   10   15 1     
   21   10   23 1     
   22   12   24 1     
   23   12   25 1     
   24   12   26 1     
   25   13   16 ar    
   26   13   27 1     
   27   14   16 ar    
   28   14   28 1     
   29   15   17 2     
   30   16   29 1     
@<TRIPOS>SUBSTRUCTURE
      1 RES1           1
@<TRIPOS>SET
DONOR_HYDROGENS      STATIC     ATOMS    <user>   **** ""
2 22 23
ATOM$RED        STATIC     ATOMS    COLORGROUP SYSTEM
2 22 23
@<TRIPOS>COMMENT
> <Gold.Version>
2022.3.0

> <Gold.Id.Protein>
unknown|4v3u_clean|pdb

> <Gold.Protein.RotatedTorsions>
[  576  535  534  533 ] final  127.62 input   59.97 | X-H torsion
[ 2566 2531 2532 2533 ] final -121.94 input  112.83 | X-H torsion
[ 2636 2605 2606 2607 ] final  -76.59 input   41.41 | X-H torsion
[ 26091 26055 26054 26052 ] final  -24.60 input   60.03 | X-H torsion
[ 27195 27136 27135 27131 ] final    0.97 input   60.01 | X-H torsion
[  728  681  682  683 ] final -131.12 input  102.19 | X-H torsion
[ 7435 7417 7418 7419 ] final   84.04 input   81.33 | X-H torsion
[ 7494 7460 7461 7462 ] final  -69.59 input  103.22 | X-H torsion
[ 7528 7515 7516 7517 ] final  156.16 input   88.53 | X-H torsion
[ 17198 17178 17179 17180 ] final  120.42 input   47.40 | X-H torsion
[ 17258 17224 17225 17226 ] final  -26.17 input  102.98 | X-H torsion
[ 18298 18277 18278 18279 ] final  -31.14 input   30.52 | X-H torsion
[ 18328 18315 18316 18317 ] final -176.71 input   53.77 | X-H torsion
[ 18417 18373 18374 18375 ] final  119.64 input   42.60 | X-H torsion
[ 18502 18463 18464 18465 ] final -179.85 input  104.04 | X-H torsion
[ 18570 18535 18536 18537 ] final   19.20 input   89.36 | X-H torsion
[ 18510 18474 18473 18471 ] final    5.70 input   60.01 | X-H torsion
[ 17306 17285 17286 17287 ] final  165.26 input   49.80 | X-H torsion
[ 18250 18212 18213 18214 ] final -147.40 input   46.53 | X-H torsion
[ 18302 18282 18281 18278 ] final  155.89 input   59.98 | X-H torsion
[ 10118 10098 10097 10094 ] final -110.77 input   59.98 | X-H torsion
[ 17002 16966 16965 16963 ] final   58.57 input   59.99 | X-H torsion
[ 11499 11466 11467 11468 ] final  151.52 input   46.07 | X-H torsion
[ 11572 11531 11532 11533 ] final  -60.45 input  118.20 | X-H torsion
[ 11648 11607 11608 11609 ] final   19.94 input   50.96 | X-H torsion
[ 11438 11418 11417 11414 ] final  142.62 input   60.01 | X-H torsion
[ 27199 27138 27137 27135 ] final  -38.46 input   60.02 | X-H torsion
[ 19310 19290 19289 19286 ] final -113.23 input   60.00 | X-H torsion
[ 10154 10134 10135 10136 ] final -167.04 input   25.69 | X-H torsion
[ 17361 17335 17336 17337 ] final -165.05 input   65.66 | X-H torsion
[ 27200  684  683  682 ] final  104.04 input    0.00 | X-H torsion
[ 27203 2534 2533 2532 ] final   56.12 input    0.00 | X-H torsion
[ 27226 7339 7338 7337 ] final   60.40 input    0.00 | X-H torsion
[ 27232 17131 17130 17129 ] final  150.29 input    0.00 | X-H torsion
[ 27236 18215 18214 18213 ] final  -91.71 input    0.00 | X-H torsion
[ 27239 18280 18279 18278 ] final  -15.81 input    0.00 | X-H torsion
[ 27242 18318 18317 18316 ] final   98.12 input    0.00 | X-H torsion
[ 27245 18376 18375 18374 ] final  -59.36 input   -0.00 | X-H torsion
[ 27253 17181 17180 17179 ] final  -97.39 input    0.00 | X-H torsion
[ 27255 17058 17057 17056 ] final  -59.48 input    0.00 | X-H torsion
[ 27257 17227 17226 17225 ] final  -90.47 input   -0.00 | X-H torsion
[ 27267 10137 10136 10135 ] final -127.04 input    0.00 | X-H torsion
[ 27269 11416 11415 11414 ] final   30.39 input    0.00 | X-H torsion
[ 27275 11610 11609 11608 ] final  175.31 input    0.00 | X-H torsion
[ 27284 18693 18692 18691 ] final -145.38 input    0.00 | X-H torsion

> <Gold.Protein.ActiveResidues>
 LYS309  TRP311  GLU314  MET341  HIS342  TRP414  ALA417  ARG419  CYS420  VAL421 
 GLY422  ARG423  SER462  ALA463  SER482  GLN483  LEU484  ILE485  ARG486  ALA502 
 TRP566  TYR567  LEU569  PRO570  ALA571  VAL572  SER573  ASN574  MET575  PHE589 
 SER590  GLY591  TRP592  TYR593  MET594  GLU597  ILE598  ARG601  ASP602  ASP605 
 SER607  ARG608  TRP683  HIS697  GLU699  TYR711  HEM750  H4B760 

> <Gold.Protein.RotatedAtoms>
  247.6532   24.5297   41.0678 H   0  0  0  0  0  0  0  0  0  0  0  0  # atno 576  bound_to 535 
  246.8245   25.5300   42.0979 H   0  0  0  0  0  0  0  0  0  0  0  0  # atno 577  bound_to 535 
  246.0947   24.1677   41.4998 H   0  0  0  0  0  0  0  0  0  0  0  0  # atno 578  bound_to 535 
  244.9660   25.4010   35.1517 H   0  0  0  0  0  0  0  0  0  0  0  0  # atno 728  bound_to 681 
  238.7635   19.4938   37.3736 H   0  0  0  0  0  0  0  0  0  0  0  0  # atno 2566 bound_to 2531
  238.9154   18.4916   40.2152 H   0  0  0  0  0  0  0  0  0  0  0  0  # atno 2636 bound_to 2605
  239.5233    5.5684   36.0129 H   0  0  0  0  0  0  0  0  0  0  0  0  # atno 7435 bound_to 7417
  240.9341    4.0906   33.3544 H   0  0  0  0  0  0  0  0  0  0  0  0  # atno 7494 bound_to 7460
  242.8917    2.6158   32.1987 H   0  0  0  0  0  0  0  0  0  0  0  0  # atno 7528 bound_to 7515
  247.5260   -3.5426   36.3721 H   0  0  0  0  0  0  0  0  0  0  0  0  # atno 10118 bound_to 10098
  249.9794   -4.9501   39.8046 H   0  0  0  0  0  0  0  0  0  0  0  0  # atno 10154 bound_to 10134
  253.8501   13.0726   41.2175 H   0  0  0  0  0  0  0  0  0  0  0  0  # atno 11438 bound_to 11418
  254.1158   10.4524   42.1367 H   0  0  0  0  0  0  0  0  0  0  0  0  # atno 11499 bound_to 11466
  256.0595    7.4501   42.5493 H   0  0  0  0  0  0  0  0  0  0  0  0  # atno 11572 bound_to 11531
  257.4567    6.6516   40.7053 H   0  0  0  0  0  0  0  0  0  0  0  0  # atno 11648 bound_to 11607
  256.3534    8.7797   36.8184 H   0  0  0  0  0  0  0  0  0  0  0  0  # atno 17002 bound_to 16966
  254.5655    3.9833   38.3471 H   0  0  0  0  0  0  0  0  0  0  0  0  # atno 17198 bound_to 17178
  252.1267    4.6407   41.3461 H   0  0  0  0  0  0  0  0  0  0  0  0  # atno 17258 bound_to 17224
  252.0175    6.4636   43.3073 H   0  0  0  0  0  0  0  0  0  0  0  0  # atno 17306 bound_to 17285
  251.5083    8.4353   45.9385 H   0  0  0  0  0  0  0  0  0  0  0  0  # atno 17361 bound_to 17335
  250.3613    1.7527   44.9618 H   0  0  0  0  0  0  0  0  0  0  0  0  # atno 18250 bound_to 18212
  249.4734   -0.0108   40.8995 H   0  0  0  0  0  0  0  0  0  0  0  0  # atno 18298 bound_to 18277
  253.7136   -1.5727   39.5773 H   0  0  0  0  0  0  0  0  0  0  0  0  # atno 18302 bound_to 18282
  249.7838   -0.0530   38.1290 H   0  0  0  0  0  0  0  0  0  0  0  0  # atno 18328 bound_to 18315
  250.0201   -1.4101   33.8435 H   0  0  0  0  0  0  0  0  0  0  0  0  # atno 18417 bound_to 18373
  252.4758    1.6475   32.1410 H   0  0  0  0  0  0  0  0  0  0  0  0  # atno 18502 bound_to 18463
  254.3246    8.1320   33.8469 H   0  0  0  0  0  0  0  0  0  0  0  0  # atno 18510 bound_to 18474
  250.5898    4.3836   29.5744 H   0  0  0  0  0  0  0  0  0  0  0  0  # atno 18570 bound_to 18535
  251.8038   22.2016   32.8950 H   0  0  0  0  0  0  0  0  0  0  0  0  # atno 19310 bound_to 19290
  243.4713   12.9376   39.6274 H   0  0  0  0  0  0  0  0  0  0  0  0  # atno 26091 bound_to 26055
  243.6567   18.9180   31.4539 H   0  0  0  0  0  0  0  0  0  0  0  0  # atno 27195 bound_to 27136
  240.3399   18.0395   33.8724 H   0  0  0  0  0  0  0  0  0  0  0  0  # atno 27199 bound_to 27138
  249.4411   22.9048   34.7421 LP  0  0  0  0  0  0  0  0  0  0  0  0  # atno 27200 bound_to 684 
  249.4027   24.2196   35.8689 LP  0  0  0  0  0  0  0  0  0  0  0  0  # atno 27201 bound_to 684 
  239.2685   20.4333   38.7579 LP  0  0  0  0  0  0  0  0  0  0  0  0  # atno 27202 bound_to 2531
  240.7642   16.2853   40.1569 LP  0  0  0  0  0  0  0  0  0  0  0  0  # atno 27203 bound_to 2534
  239.1148   16.3241   40.6840 LP  0  0  0  0  0  0  0  0  0  0  0  0  # atno 27204 bound_to 2534
  240.2178   19.5624   40.6764 LP  0  0  0  0  0  0  0  0  0  0  0  0  # atno 27205 bound_to 2605
  242.0180   13.6680   39.6584 LP  0  0  0  0  0  0  0  0  0  0  0  0  # atno 27209 bound_to 26055
  242.1275   12.0519   39.8653 LP  0  0  0  0  0  0  0  0  0  0  0  0  # atno 27210 bound_to 26055
  244.0407   20.0570   32.5514 LP  0  0  0  0  0  0  0  0  0  0  0  0  # atno 27213 bound_to 27136
  242.7853   20.2904   31.5336 LP  0  0  0  0  0  0  0  0  0  0  0  0  # atno 27214 bound_to 27136
  245.4540   24.8573   33.5689 LP  0  0  0  0  0  0  0  0  0  0  0  0  # atno 27215 bound_to 681 
  241.8663    8.2980   34.7032 LP  0  0  0  0  0  0  0  0  0  0  0  0  # atno 27226 bound_to 7339
  241.3043    7.3115   33.3952 LP  0  0  0  0  0  0  0  0  0  0  0  0  # atno 27227 bound_to 7339
  240.2878    6.8497   35.1075 LP  0  0  0  0  0  0  0  0  0  0  0  0  # atno 27228 bound_to 7417
  242.1362    5.0548   32.5245 LP  0  0  0  0  0  0  0  0  0  0  0  0  # atno 27229 bound_to 7460
  241.2940    1.9228   32.3616 LP  0  0  0  0  0  0  0  0  0  0  0  0  # atno 27230 bound_to 7515
  252.2196    2.1439   38.4534 LP  0  0  0  0  0  0  0  0  0  0  0  0  # atno 27232 bound_to 17131
  251.7414    2.5027   36.8278 LP  0  0  0  0  0  0  0  0  0  0  0  0  # atno 27233 bound_to 17131
  253.0066    4.6780   37.9749 LP  0  0  0  0  0  0  0  0  0  0  0  0  # atno 27234 bound_to 17178
  251.0305    5.0420   40.0422 LP  0  0  0  0  0  0  0  0  0  0  0  0  # atno 27235 bound_to 17224
  250.1970    3.0259   40.9220 LP  0  0  0  0  0  0  0  0  0  0  0  0  # atno 27236 bound_to 18215
  251.7478    2.6467   41.5938 LP  0  0  0  0  0  0  0  0  0  0  0  0  # atno 27237 bound_to 18215
  250.9980    0.3630   41.6656 LP  0  0  0  0  0  0  0  0  0  0  0  0  # atno 27238 bound_to 18277
  250.2946   -2.0860   39.7298 LP  0  0  0  0  0  0  0  0  0  0  0  0  # atno 27239 bound_to 18280
  249.3730   -2.1834   38.2665 LP  0  0  0  0  0  0  0  0  0  0  0  0  # atno 27240 bound_to 18280
  251.1989    0.4137   37.2106 LP  0  0  0  0  0  0  0  0  0  0  0  0  # atno 27241 bound_to 18315
  252.4225   -2.0567   35.0876 LP  0  0  0  0  0  0  0  0  0  0  0  0  # atno 27242 bound_to 18318
  252.6912   -0.4583   35.6985 LP  0  0  0  0  0  0  0  0  0  0  0  0  # atno 27243 bound_to 18318
  250.2626    0.1537   34.5779 LP  0  0  0  0  0  0  0  0  0  0  0  0  # atno 27244 bound_to 18373
  249.0636    0.8603   31.9108 LP  0  0  0  0  0  0  0  0  0  0  0  0  # atno 27245 bound_to 18376
  249.6427    2.3863   32.4903 LP  0  0  0  0  0  0  0  0  0  0  0  0  # atno 27246 bound_to 18376
  251.5181    0.7718   30.9640 LP  0  0  0  0  0  0  0  0  0  0  0  0  # atno 27247 bound_to 18463
  249.7040    2.8775   29.6227 LP  0  0  0  0  0  0  0  0  0  0  0  0  # atno 27248 bound_to 18535
  253.8351    5.7609   42.1561 LP  0  0  0  0  0  0  0  0  0  0  0  0  # atno 27253 bound_to 17181
  253.9059    6.5662   40.6242 LP  0  0  0  0  0  0  0  0  0  0  0  0  # atno 27254 bound_to 17181
  256.9779    3.3683   37.8257 LP  0  0  0  0  0  0  0  0  0  0  0  0  # atno 27255 bound_to 17058
  256.6793    4.5664   36.6110 LP  0  0  0  0  0  0  0  0  0  0  0  0  # atno 27256 bound_to 17058
  249.7315    4.7843   44.0913 LP  0  0  0  0  0  0  0  0  0  0  0  0  # atno 27257 bound_to 17227
  251.3108    4.1512   43.7674 LP  0  0  0  0  0  0  0  0  0  0  0  0  # atno 27258 bound_to 17227
  255.8237    7.9259   33.2485 LP  0  0  0  0  0  0  0  0  0  0  0  0  # atno 27259 bound_to 18474
  255.3274    7.0508   34.5348 LP  0  0  0  0  0  0  0  0  0  0  0  0  # atno 27260 bound_to 18474
  250.8125    7.6158   43.8243 LP  0  0  0  0  0  0  0  0  0  0  0  0  # atno 27261 bound_to 17285
  250.4140    2.9346   43.6770 LP  0  0  0  0  0  0  0  0  0  0  0  0  # atno 27262 bound_to 18212
  252.1208   -1.8708   39.4319 LP  0  0  0  0  0  0  0  0  0  0  0  0  # atno 27263 bound_to 18282
  252.7502   -1.4696   40.8843 LP  0  0  0  0  0  0  0  0  0  0  0  0  # atno 27264 bound_to 18282
  247.3644   -5.1145   35.9832 LP  0  0  0  0  0  0  0  0  0  0  0  0  # atno 27265 bound_to 10098
  248.8430   -4.4215   35.9963 LP  0  0  0  0  0  0  0  0  0  0  0  0  # atno 27266 bound_to 10098
  250.3726   -1.3411   42.6885 LP  0  0  0  0  0  0  0  0  0  0  0  0  # atno 27267 bound_to 10137
  249.3019   -1.8634   41.4312 LP  0  0  0  0  0  0  0  0  0  0  0  0  # atno 27268 bound_to 10137
  251.5397   10.1149   42.9759 LP  0  0  0  0  0  0  0  0  0  0  0  0  # atno 27269 bound_to 11416
  252.3663    8.5955   42.8859 LP  0  0  0  0  0  0  0  0  0  0  0  0  # atno 27270 bound_to 11416
  256.0057    8.9189   35.2349 LP  0  0  0  0  0  0  0  0  0  0  0  0  # atno 27271 bound_to 16966
  257.0973    9.9183   35.9252 LP  0  0  0  0  0  0  0  0  0  0  0  0  # atno 27272 bound_to 16966
  254.9792    9.9069   43.5591 LP  0  0  0  0  0  0  0  0  0  0  0  0  # atno 27273 bound_to 11466
  255.2997    5.9237   42.1677 LP  0  0  0  0  0  0  0  0  0  0  0  0  # atno 27274 bound_to 11531
  258.0636    8.6936   37.9597 LP  0  0  0  0  0  0  0  0  0  0  0  0  # atno 27275 bound_to 11610
  257.8522    6.9987   38.2470 LP  0  0  0  0  0  0  0  0  0  0  0  0  # atno 27276 bound_to 11610
  258.5041    5.7191   41.7476 LP  0  0  0  0  0  0  0  0  0  0  0  0  # atno 27279 bound_to 11607
  254.6334   11.7990   41.8593 LP  0  0  0  0  0  0  0  0  0  0  0  0  # atno 27282 bound_to 11418
  255.0538   13.3186   42.2842 LP  0  0  0  0  0  0  0  0  0  0  0  0  # atno 27283 bound_to 11418
  253.1084   11.8383   29.1236 LP  0  0  0  0  0  0  0  0  0  0  0  0  # atno 27284 bound_to 18693
  251.9901   11.5230   30.4081 LP  0  0  0  0  0  0  0  0  0  0  0  0  # atno 27285 bound_to 18693

> <Gold.Score>
     Fitness  S(hb_ext) S(vdw_ext)  S(hb_int)    S(int)      intcor
     27.34       6.00      16.20       0.00      -0.93      -0.77

> <Gold.Goldscore.Fitness>
27.3406

> <Gold.Goldscore.Internal.Vdw>
-1.1081

> <Gold.Goldscore.Internal.Torsion>
-0.5940

> <Gold.Goldscore.External.Vdw>
16.1989

> <Gold.Goldscore.Internal.HBond>
0.0000

> <Gold.Goldscore.External.HBond>
6.0000

> <Gold.Goldscore.Internal.Correction>
-0.7693

> <Gold.Goldscore.Hbonds>
donor molecule, donor type, donor heavy atom, donor atom, acceptor molecule, acceptor atom, score
      L1  H     8    22       P1 27129  1.00

> <Gold.Goldscore.Internal.Vdw.Weighted>
-1.1081

> <Gold.Goldscore.Internal.Torsion.Weighted>
-0.5940

> <Gold.Goldscore.External.Vdw.Weighted>
22.2734

> <Gold.Goldscore.Internal.HBond.Weighted>
0.0000

> <Gold.Goldscore.External.HBond.Weighted>
6.0000

> <Gold.Goldscore.Internal.Correction.Weighted>
-0.7693

> <Gold.Rescore>
     Score     S(PLP)   S(hbond)     S(cho)   S(metal)  DE(clash)   DE(tors)     intcor
     22.55     -21.67       1.00       0.00       0.00       0.78       0.67       ----

> <Gold.PLP.Fitness>
22.5479

> <Gold.PLP.PLP>
-21.6707

> <Gold.PLP.part.hbond>
-1.9245

> <Gold.PLP.part.metal>
0.0000

> <Gold.PLP.part.buried>
-2.9280

> <Gold.PLP.part.nonpolar>
-18.1243

> <Gold.PLP.part.repulsive>
0.3751

> <Gold.PLP.ligand.clash>
0.7830

> <Gold.PLP.ligand.torsion>
0.6699

> <Gold.PLP.Chemscore.Hbond>
1.0000

> <Gold.PLP.Chemscore.CHOScore>
0.0000

> <Gold.PLP.Chemscore.Metal>
0.0000

> <Gold.Chemscore.Hbonds>
donor molecule, donor type, donor heavy atom, donor atom, acceptor molecule, acceptor atom, score
      L1  H     8    22       P1 27129  1.00

> <Gold.PLP.Chemscore.Internal.Correction>
   9.000000E+99

