#       Name:                CT1002167954
#       Creating user name   hitesit
#       Creation time:       Sun Apr 16 23:04:53 2023


#       File generated by GOLD software.
#

@<TRIPOS>MOLECULE
CT1002167954|ligand_prepared|mol2|1|dock10
    29    30     1
SMALL
NO_CHARGES


@<TRIPOS>ATOM
      1 C1         249.9814  11.0074  38.6680 C.3            1 RES1               0.0000
      2 C2         250.5035  10.2742  37.4156 C.ar           1 RES1               0.0000
      3 C3         250.3046  12.4848  38.4655 C.2            1 RES1               0.0000
      4 C4         248.4897  10.7025  38.7500 C.2            1 RES1               0.0000
      5 C5         250.6383  10.5371  39.9866 C.3            1 RES1               0.0000
      6 C6         250.3589  10.8392  36.1520 C.ar           1 RES1               0.0000
      7 C7         251.1331   9.0358  37.5080 C.ar           1 RES1               0.0000
      8 N8         249.2715  13.3219  38.1626 N.am           1 RES1               0.0000
      9 O9         251.4542  12.9023  38.5316 O.2            1 RES1               0.0000
     10 N10        247.6119  11.7419  38.5859 N.am           1 RES1               0.0000
     11 O11        248.0663   9.5687  38.9387 O.2            1 RES1               0.0000
     12 C12        250.2654  11.3837  41.1934 C.3            1 RES1               0.0000
     13 C13        250.8294  10.1910  35.0220 C.ar           1 RES1               0.0000
     14 C14        251.6027   8.3893  36.3766 C.ar           1 RES1               0.0000
     15 C15        247.9346  13.0324  38.2653 C.2            1 RES1               0.0000
     16 C16        251.4519   8.9660  35.1335 C.ar           1 RES1               0.0000
     17 O17        247.0855  13.8995  38.0802 O.2            1 RES1               0.0000
     18 H18        250.3412   9.4987  40.1784 H              1 RES1               0.0000
     19 H19        251.7284  10.5569  39.8648 H              1 RES1               0.0000
     20 H20        249.8695  11.8014  36.0443 H              1 RES1               0.0000
     21 H21        251.2618   8.5627  38.4756 H              1 RES1               0.0000
     22 H22        249.5154  14.2489  37.8286 H              1 RES1               0.0000
     23 H23        246.6267  11.5344  38.7147 H              1 RES1               0.0000
     24 H24        250.7530  11.0108  42.0917 H              1 RES1               0.0000
     25 H25        250.5692  12.4182  41.0476 H              1 RES1               0.0000
     26 H26        249.1902  11.3663  41.3594 H              1 RES1               0.0000
     27 H27        250.7070  10.6485  34.0458 H              1 RES1               0.0000
     28 H28        252.0914   7.4250  36.4691 H              1 RES1               0.0000
     29 H29        251.8207   8.4587  34.2482 H              1 RES1               0.0000
@<TRIPOS>BOND
    1    1    2 1     
    2    1    3 1     
    3    1    4 1     
    4    1    5 1     
    5    2    6 ar    
    6    2    7 ar    
    7    3    8 1     
    8    3    9 2     
    9    4   10 1     
   10    4   11 2     
   11    5   12 1     
   12    5   18 1     
   13    5   19 1     
   14    6   13 ar    
   15    6   20 1     
   16    7   14 ar    
   17    7   21 1     
   18    8   15 1     
   19    8   22 1     
   20   10   15 1     
   21   10   23 1     
   22   12   24 1     
   23   12   25 1     
   24   12   26 1     
   25   13   16 ar    
   26   13   27 1     
   27   14   16 ar    
   28   14   28 1     
   29   15   17 2     
   30   16   29 1     
@<TRIPOS>SUBSTRUCTURE
      1 RES1           1
@<TRIPOS>SET
DONOR_HYDROGENS      STATIC     ATOMS    <user>   **** ""
2 22 23
ATOM$RED        STATIC     ATOMS    COLORGROUP SYSTEM
2 22 23
@<TRIPOS>COMMENT
> <Gold.Version>
2022.3.0

> <Gold.Id.Protein>
unknown|4v3u_clean|pdb

> <Gold.Protein.RotatedTorsions>
[  576  535  534  533 ] final -116.12 input   59.97 | X-H torsion
[ 2566 2531 2532 2533 ] final  -95.72 input  112.83 | X-H torsion
[ 2636 2605 2606 2607 ] final  -47.38 input   41.41 | X-H torsion
[ 26091 26055 26054 26052 ] final  -33.28 input   60.03 | X-H torsion
[ 27195 27136 27135 27131 ] final   80.93 input   60.01 | X-H torsion
[  728  681  682  683 ] final   -9.13 input  102.19 | X-H torsion
[ 7435 7417 7418 7419 ] final -168.87 input   81.33 | X-H torsion
[ 7494 7460 7461 7462 ] final   45.39 input  103.22 | X-H torsion
[ 7528 7515 7516 7517 ] final  -55.18 input   88.53 | X-H torsion
[ 17198 17178 17179 17180 ] final  101.34 input   47.40 | X-H torsion
[ 17258 17224 17225 17226 ] final  -79.89 input  102.98 | X-H torsion
[ 18298 18277 18278 18279 ] final -120.03 input   30.52 | X-H torsion
[ 18328 18315 18316 18317 ] final -119.00 input   53.77 | X-H torsion
[ 18417 18373 18374 18375 ] final -127.02 input   42.60 | X-H torsion
[ 18502 18463 18464 18465 ] final   -9.67 input  104.04 | X-H torsion
[ 18570 18535 18536 18537 ] final -122.58 input   89.36 | X-H torsion
[ 18510 18474 18473 18471 ] final  -34.16 input   60.01 | X-H torsion
[ 17306 17285 17286 17287 ] final -142.63 input   49.80 | X-H torsion
[ 18250 18212 18213 18214 ] final   25.61 input   46.53 | X-H torsion
[ 18302 18282 18281 18278 ] final  -34.00 input   59.98 | X-H torsion
[ 10118 10098 10097 10094 ] final  -16.05 input   59.98 | X-H torsion
[ 17002 16966 16965 16963 ] final  -62.16 input   59.99 | X-H torsion
[ 11499 11466 11467 11468 ] final -159.84 input   46.07 | X-H torsion
[ 11572 11531 11532 11533 ] final  -37.60 input  118.20 | X-H torsion
[ 11648 11607 11608 11609 ] final   32.87 input   50.96 | X-H torsion
[ 11438 11418 11417 11414 ] final   80.00 input   60.01 | X-H torsion
[ 27199 27138 27137 27135 ] final  -63.59 input   60.02 | X-H torsion
[ 19310 19290 19289 19286 ] final -123.92 input   60.00 | X-H torsion
[ 10154 10134 10135 10136 ] final   86.38 input   25.69 | X-H torsion
[ 17361 17335 17336 17337 ] final   68.96 input   65.66 | X-H torsion
[ 27200  684  683  682 ] final  135.30 input    0.00 | X-H torsion
[ 27203 2534 2533 2532 ] final  164.70 input    0.00 | X-H torsion
[ 27226 7339 7338 7337 ] final -154.50 input    0.00 | X-H torsion
[ 27232 17131 17130 17129 ] final    0.13 input    0.00 | X-H torsion
[ 27236 18215 18214 18213 ] final   31.83 input    0.00 | X-H torsion
[ 27239 18280 18279 18278 ] final   65.48 input    0.00 | X-H torsion
[ 27242 18318 18317 18316 ] final    1.98 input    0.00 | X-H torsion
[ 27245 18376 18375 18374 ] final   30.42 input   -0.00 | X-H torsion
[ 27253 17181 17180 17179 ] final   68.23 input    0.00 | X-H torsion
[ 27255 17058 17057 17056 ] final  -87.62 input    0.00 | X-H torsion
[ 27257 17227 17226 17225 ] final -176.45 input   -0.00 | X-H torsion
[ 27267 10137 10136 10135 ] final  163.97 input    0.00 | X-H torsion
[ 27269 11416 11415 11414 ] final   47.10 input    0.00 | X-H torsion
[ 27275 11610 11609 11608 ] final   11.01 input    0.00 | X-H torsion
[ 27284 18693 18692 18691 ] final   39.96 input    0.00 | X-H torsion

> <Gold.Protein.ActiveResidues>
 LYS309  TRP311  GLU314  MET341  HIS342  TRP414  ALA417  ARG419  CYS420  VAL421 
 GLY422  ARG423  SER462  ALA463  SER482  GLN483  LEU484  ILE485  ARG486  ALA502 
 TRP566  TYR567  LEU569  PRO570  ALA571  VAL572  SER573  ASN574  MET575  PHE589 
 SER590  GLY591  TRP592  TYR593  MET594  GLU597  ILE598  ARG601  ASP602  ASP605 
 SER607  ARG608  TRP683  HIS697  GLU699  TYR711  HEM750  H4B760 

> <Gold.Protein.RotatedAtoms>
  246.8842   25.5423   42.0806 H   0  0  0  0  0  0  0  0  0  0  0  0  # atno 576  bound_to 535 
  246.0654   24.2064   41.5389 H   0  0  0  0  0  0  0  0  0  0  0  0  # atno 577  bound_to 535 
  247.6238   24.4796   41.0461 H   0  0  0  0  0  0  0  0  0  0  0  0  # atno 578  bound_to 535 
  245.7983   25.5653   33.8770 H   0  0  0  0  0  0  0  0  0  0  0  0  # atno 728  bound_to 681 
  238.4977   19.3905   37.6556 H   0  0  0  0  0  0  0  0  0  0  0  0  # atno 2566 bound_to 2531
  238.7182   18.8860   40.2826 H   0  0  0  0  0  0  0  0  0  0  0  0  # atno 2636 bound_to 2605
  240.5179    6.5715   36.0798 H   0  0  0  0  0  0  0  0  0  0  0  0  # atno 7435 bound_to 7417
  242.3554    4.2157   32.8901 H   0  0  0  0  0  0  0  0  0  0  0  0  # atno 7494 bound_to 7460
  241.3597    1.9269   31.8931 H   0  0  0  0  0  0  0  0  0  0  0  0  # atno 7528 bound_to 7515
  248.7869   -4.0291   36.1060 H   0  0  0  0  0  0  0  0  0  0  0  0  # atno 10118 bound_to 10098
  250.7479   -3.7664   39.9187 H   0  0  0  0  0  0  0  0  0  0  0  0  # atno 10154 bound_to 10134
  253.9924   12.1146   41.3087 H   0  0  0  0  0  0  0  0  0  0  0  0  # atno 11438 bound_to 11418
  253.6876   10.1614   42.6572 H   0  0  0  0  0  0  0  0  0  0  0  0  # atno 11499 bound_to 11466
  256.1680    7.3989   42.2207 H   0  0  0  0  0  0  0  0  0  0  0  0  # atno 11572 bound_to 11531
  257.4391    6.4797   40.6068 H   0  0  0  0  0  0  0  0  0  0  0  0  # atno 11648 bound_to 11607
  256.0161    8.9280   35.2335 H   0  0  0  0  0  0  0  0  0  0  0  0  # atno 17002 bound_to 16966
  254.6123    4.2581   38.4363 H   0  0  0  0  0  0  0  0  0  0  0  0  # atno 17198 bound_to 17178
  252.3837    5.1797   40.8088 H   0  0  0  0  0  0  0  0  0  0  0  0  # atno 17258 bound_to 17224
  251.3057    6.1835   43.4190 H   0  0  0  0  0  0  0  0  0  0  0  0  # atno 17306 bound_to 17285
  250.3034    8.6339   44.9450 H   0  0  0  0  0  0  0  0  0  0  0  0  # atno 17361 bound_to 17335
  250.5170    2.9168   43.6511 H   0  0  0  0  0  0  0  0  0  0  0  0  # atno 18250 bound_to 18212
  250.0246    1.0326   41.2663 H   0  0  0  0  0  0  0  0  0  0  0  0  # atno 18298 bound_to 18277
  252.0877   -1.6585   40.4864 H   0  0  0  0  0  0  0  0  0  0  0  0  # atno 18302 bound_to 18282
  250.4889   -0.5401   38.1785 H   0  0  0  0  0  0  0  0  0  0  0  0  # atno 18328 bound_to 18315
  250.7764   -0.6188   34.8196 H   0  0  0  0  0  0  0  0  0  0  0  0  # atno 18417 bound_to 18373
  251.3772    0.8127   31.0181 H   0  0  0  0  0  0  0  0  0  0  0  0  # atno 18502 bound_to 18463
  254.7000    8.3539   33.3812 H   0  0  0  0  0  0  0  0  0  0  0  0  # atno 18510 bound_to 18474
  250.2107    2.7668   29.3801 H   0  0  0  0  0  0  0  0  0  0  0  0  # atno 18570 bound_to 18535
  251.7692   22.2719   33.0507 H   0  0  0  0  0  0  0  0  0  0  0  0  # atno 19310 bound_to 19290
  243.4512   13.0768   39.6105 H   0  0  0  0  0  0  0  0  0  0  0  0  # atno 26091 bound_to 26055
  242.8129   19.7389   31.2033 H   0  0  0  0  0  0  0  0  0  0  0  0  # atno 27195 bound_to 27136
  240.0418   18.0428   33.5950 H   0  0  0  0  0  0  0  0  0  0  0  0  # atno 27199 bound_to 27138
  249.7042   23.2403   34.5527 LP  0  0  0  0  0  0  0  0  0  0  0  0  # atno 27200 bound_to 684 
  249.1396   23.8841   36.0583 LP  0  0  0  0  0  0  0  0  0  0  0  0  # atno 27201 bound_to 684 
  239.5282   20.5342   38.4824 LP  0  0  0  0  0  0  0  0  0  0  0  0  # atno 27202 bound_to 2531
  239.9242   16.4938   41.2655 LP  0  0  0  0  0  0  0  0  0  0  0  0  # atno 27203 bound_to 2534
  239.9548   16.1156   39.5755 LP  0  0  0  0  0  0  0  0  0  0  0  0  # atno 27204 bound_to 2534
  240.4103   19.1775   40.6107 LP  0  0  0  0  0  0  0  0  0  0  0  0  # atno 27205 bound_to 2605
  241.9062   13.5819   39.6801 LP  0  0  0  0  0  0  0  0  0  0  0  0  # atno 27209 bound_to 26055
  242.2595   11.9978   39.8605 LP  0  0  0  0  0  0  0  0  0  0  0  0  # atno 27210 bound_to 26055
  244.0872   19.0239   31.9203 LP  0  0  0  0  0  0  0  0  0  0  0  0  # atno 27213 bound_to 27136
  243.5881   20.4973   32.4170 LP  0  0  0  0  0  0  0  0  0  0  0  0  # atno 27214 bound_to 27136
  244.6289   24.6943   34.8326 LP  0  0  0  0  0  0  0  0  0  0  0  0  # atno 27215 bound_to 681 
  241.6560    7.0350   33.6589 LP  0  0  0  0  0  0  0  0  0  0  0  0  # atno 27226 bound_to 7339
  241.5146    8.5746   34.4396 LP  0  0  0  0  0  0  0  0  0  0  0  0  # atno 27227 bound_to 7339
  239.3080    5.8615   35.0417 LP  0  0  0  0  0  0  0  0  0  0  0  0  # atno 27228 bound_to 7417
  240.7614    4.9338   32.9736 LP  0  0  0  0  0  0  0  0  0  0  0  0  # atno 27229 bound_to 7460
  242.7843    2.5929   32.6589 LP  0  0  0  0  0  0  0  0  0  0  0  0  # atno 27230 bound_to 7515
  252.0547    2.1877   36.7885 LP  0  0  0  0  0  0  0  0  0  0  0  0  # atno 27232 bound_to 17131
  251.9063    2.4589   38.4927 LP  0  0  0  0  0  0  0  0  0  0  0  0  # atno 27233 bound_to 17131
  252.9608    4.4090   37.8875 LP  0  0  0  0  0  0  0  0  0  0  0  0  # atno 27234 bound_to 17178
  250.7815    4.5200   40.5626 LP  0  0  0  0  0  0  0  0  0  0  0  0  # atno 27235 bound_to 17224
  251.1824    2.9770   42.0862 LP  0  0  0  0  0  0  0  0  0  0  0  0  # atno 27236 bound_to 18215
  250.7624    2.6956   40.4296 LP  0  0  0  0  0  0  0  0  0  0  0  0  # atno 27237 bound_to 18215
  250.4581   -0.6590   41.3063 LP  0  0  0  0  0  0  0  0  0  0  0  0  # atno 27238 bound_to 18277
  249.2400   -1.7562   39.5023 LP  0  0  0  0  0  0  0  0  0  0  0  0  # atno 27239 bound_to 18280
  250.4276   -2.5132   38.4940 LP  0  0  0  0  0  0  0  0  0  0  0  0  # atno 27240 bound_to 18280
  250.5165    0.8851   37.1626 LP  0  0  0  0  0  0  0  0  0  0  0  0  # atno 27241 bound_to 18315
  252.3494   -1.4363   36.2146 LP  0  0  0  0  0  0  0  0  0  0  0  0  # atno 27242 bound_to 18318
  252.7643   -1.0787   34.5715 LP  0  0  0  0  0  0  0  0  0  0  0  0  # atno 27243 bound_to 18318
  249.5157   -0.6278   33.6139 LP  0  0  0  0  0  0  0  0  0  0  0  0  # atno 27244 bound_to 18373
  249.3193    1.3241   33.0125 LP  0  0  0  0  0  0  0  0  0  0  0  0  # atno 27245 bound_to 18376
  249.3871    1.9225   31.3885 LP  0  0  0  0  0  0  0  0  0  0  0  0  # atno 27246 bound_to 18376
  252.5752    1.5750   32.0444 LP  0  0  0  0  0  0  0  0  0  0  0  0  # atno 27247 bound_to 18463
  250.0739    4.4549   29.8123 LP  0  0  0  0  0  0  0  0  0  0  0  0  # atno 27248 bound_to 18535
  254.0616    6.4205   40.5855 LP  0  0  0  0  0  0  0  0  0  0  0  0  # atno 27253 bound_to 17181
  253.6794    5.9066   42.1948 LP  0  0  0  0  0  0  0  0  0  0  0  0  # atno 27254 bound_to 17181
  256.5989    3.5226   37.9251 LP  0  0  0  0  0  0  0  0  0  0  0  0  # atno 27255 bound_to 17058
  257.0583    4.4121   36.5116 LP  0  0  0  0  0  0  0  0  0  0  0  0  # atno 27256 bound_to 17058
  250.7270    4.7402   44.7252 LP  0  0  0  0  0  0  0  0  0  0  0  0  # atno 27257 bound_to 17227
  250.3153    4.1952   43.1335 LP  0  0  0  0  0  0  0  0  0  0  0  0  # atno 27258 bound_to 17227
  256.0417    7.4728   33.6488 LP  0  0  0  0  0  0  0  0  0  0  0  0  # atno 27259 bound_to 18474
  254.7311    7.2803   34.6037 LP  0  0  0  0  0  0  0  0  0  0  0  0  # atno 27260 bound_to 18474
  251.5125    7.8914   43.7145 LP  0  0  0  0  0  0  0  0  0  0  0  0  # atno 27261 bound_to 17285
  250.2612    1.7925   44.9629 LP  0  0  0  0  0  0  0  0  0  0  0  0  # atno 27262 bound_to 18212
  253.6919   -1.4199   40.3578 LP  0  0  0  0  0  0  0  0  0  0  0  0  # atno 27263 bound_to 18282
  252.8170   -1.8340   39.0427 LP  0  0  0  0  0  0  0  0  0  0  0  0  # atno 27264 bound_to 18282
  247.1956   -3.7858   36.3440 LP  0  0  0  0  0  0  0  0  0  0  0  0  # atno 27265 bound_to 10098
  247.7420   -5.2602   35.9035 LP  0  0  0  0  0  0  0  0  0  0  0  0  # atno 27266 bound_to 10098
  249.3938   -1.3107   42.7442 LP  0  0  0  0  0  0  0  0  0  0  0  0  # atno 27267 bound_to 10137
  250.2807   -1.8938   41.3755 LP  0  0  0  0  0  0  0  0  0  0  0  0  # atno 27268 bound_to 10137
  251.5800   10.1099   42.7276 LP  0  0  0  0  0  0  0  0  0  0  0  0  # atno 27269 bound_to 11416
  252.3260    8.6005   43.1342 LP  0  0  0  0  0  0  0  0  0  0  0  0  # atno 27270 bound_to 11416
  257.0998    9.9172   35.9369 LP  0  0  0  0  0  0  0  0  0  0  0  0  # atno 27271 bound_to 16966
  256.3431    8.7706   36.8197 LP  0  0  0  0  0  0  0  0  0  0  0  0  # atno 27272 bound_to 16966
  255.3922   10.1875   43.0572 LP  0  0  0  0  0  0  0  0  0  0  0  0  # atno 27273 bound_to 11466
  255.1935    5.9738   42.4895 LP  0  0  0  0  0  0  0  0  0  0  0  0  # atno 27274 bound_to 11531
  257.6961    7.0781   38.4060 LP  0  0  0  0  0  0  0  0  0  0  0  0  # atno 27275 bound_to 11610
  258.2198    8.6142   37.8007 LP  0  0  0  0  0  0  0  0  0  0  0  0  # atno 27276 bound_to 11610
  258.5213    5.8874   41.8440 LP  0  0  0  0  0  0  0  0  0  0  0  0  # atno 27279 bound_to 11607
  255.1863   12.4272   42.3691 LP  0  0  0  0  0  0  0  0  0  0  0  0  # atno 27282 bound_to 11418
  254.3575   13.6555   41.6826 LP  0  0  0  0  0  0  0  0  0  0  0  0  # atno 27283 bound_to 11418
  252.0510   11.4872   30.4473 LP  0  0  0  0  0  0  0  0  0  0  0  0  # atno 27284 bound_to 18693
  253.0475   11.8740   29.0844 LP  0  0  0  0  0  0  0  0  0  0  0  0  # atno 27285 bound_to 18693

> <Gold.Score>
     Fitness  S(hb_ext) S(vdw_ext)  S(hb_int)    S(int)      intcor
     29.57       2.65      19.80       0.00      -0.30      -0.77

> <Gold.Goldscore.Fitness>
29.5738

> <Gold.Goldscore.Internal.Vdw>
-0.5999

> <Gold.Goldscore.Internal.Torsion>
-0.4675

> <Gold.Goldscore.External.Vdw>
19.7979

> <Gold.Goldscore.Internal.HBond>
0.0000

> <Gold.Goldscore.External.HBond>
2.6497

> <Gold.Goldscore.Internal.Correction>
-0.7693

> <Gold.Goldscore.Hbonds>
donor molecule, donor type, donor heavy atom, donor atom, acceptor molecule, acceptor atom, score
      P1  H 11473 11506       L1     9  0.02
      L1  H    10    23       P1 26919  0.44

> <Gold.Goldscore.Internal.Vdw.Weighted>
-0.5999

> <Gold.Goldscore.Internal.Torsion.Weighted>
-0.4675

> <Gold.Goldscore.External.Vdw.Weighted>
27.2222

> <Gold.Goldscore.Internal.HBond.Weighted>
0.0000

> <Gold.Goldscore.External.HBond.Weighted>
2.6497

> <Gold.Goldscore.Internal.Correction.Weighted>
-0.7693

> <Gold.Rescore>
     Score     S(PLP)   S(hbond)     S(cho)   S(metal)  DE(clash)   DE(tors)     intcor
     31.37     -29.40       1.26       0.00       0.00       0.00       0.91       ----

> <Gold.PLP.Fitness>
31.3746

> <Gold.PLP.PLP>
-29.4048

> <Gold.PLP.part.hbond>
-3.0000

> <Gold.PLP.part.metal>
0.0000

> <Gold.PLP.part.buried>
-5.2473

> <Gold.PLP.part.nonpolar>
-23.0325

> <Gold.PLP.part.repulsive>
0.3314

> <Gold.PLP.ligand.clash>
0.0000

> <Gold.PLP.ligand.torsion>
0.9111

> <Gold.PLP.Chemscore.Hbond>
1.2640

> <Gold.PLP.Chemscore.CHOScore>
0.0000

> <Gold.PLP.Chemscore.Metal>
0.0000

> <Gold.Chemscore.Hbonds>
donor molecule, donor type, donor heavy atom, donor atom, acceptor molecule, acceptor atom, score
      L1  H    10    23       P1 26919  0.47
      P1  H 11473 11506       L1     9  0.25

> <Gold.PLP.Chemscore.Internal.Correction>
   9.000000E+99

