#       Name:                CT1002167954
#       Creating user name   hitesit
#       Creation time:       Sun Apr 16 23:04:46 2023


#       File generated by GOLD software.
#

@<TRIPOS>MOLECULE
CT1002167954|ligand_prepared|mol2|1|dock1
    29    30     1
SMALL
NO_CHARGES


@<TRIPOS>ATOM
      1 C1         250.7579  11.4622  35.1962 C.3            1 RES1               0.0000
      2 C2         250.3115  11.1526  36.6397 C.ar           1 RES1               0.0000
      3 C3         251.5891  12.7397  35.2695 C.2            1 RES1               0.0000
      4 C4         251.5355  10.2406  34.7189 C.2            1 RES1               0.0000
      5 C5         249.5849  11.6949  34.2157 C.3            1 RES1               0.0000
      6 C6         250.9756  11.7188  37.7237 C.ar           1 RES1               0.0000
      7 C7         249.2375  10.3063  36.9026 C.ar           1 RES1               0.0000
      8 N8         252.9403  12.6235  35.1265 N.am           1 RES1               0.0000
      9 O9         251.0707  13.8276  35.4890 O.2            1 RES1               0.0000
     10 N10        252.8731  10.3911  34.4618 N.am           1 RES1               0.0000
     11 O11        251.0056   9.1452  34.5791 O.2            1 RES1               0.0000
     12 C12        250.0134  12.2573  32.8696 C.3            1 RES1               0.0000
     13 C13        250.5787  11.4511  39.0234 C.ar           1 RES1               0.0000
     14 C14        248.8424  10.0398  38.2031 C.ar           1 RES1               0.0000
     15 C15        253.6172  11.5197  34.6734 C.2            1 RES1               0.0000
     16 C16        249.5117  10.6119  39.2640 C.ar           1 RES1               0.0000
     17 O17        254.8271  11.5615  34.4697 O.2            1 RES1               0.0000
     18 H18        249.0675  10.7416  34.0516 H              1 RES1               0.0000
     19 H19        248.8713  12.3886  34.6772 H              1 RES1               0.0000
     20 H20        251.8190  12.3797  37.5540 H              1 RES1               0.0000
     21 H21        248.6969   9.8441  36.0836 H              1 RES1               0.0000
     22 H22        253.4993  13.4319  35.3799 H              1 RES1               0.0000
     23 H23        253.3590   9.5873  34.0770 H              1 RES1               0.0000
     24 H24        249.1525  12.4015  32.2201 H              1 RES1               0.0000
     25 H25        250.5094  13.2178  32.9930 H              1 RES1               0.0000
     26 H26        250.7044  11.5806  32.3711 H              1 RES1               0.0000
     27 H27        251.1096  11.9028  39.8548 H              1 RES1               0.0000
     28 H28        248.0025   9.3782  38.3878 H              1 RES1               0.0000
     29 H29        249.2008  10.4027  40.2822 H              1 RES1               0.0000
@<TRIPOS>BOND
    1    1    2 1     
    2    1    3 1     
    3    1    4 1     
    4    1    5 1     
    5    2    6 ar    
    6    2    7 ar    
    7    3    8 1     
    8    3    9 2     
    9    4   10 1     
   10    4   11 2     
   11    5   12 1     
   12    5   18 1     
   13    5   19 1     
   14    6   13 ar    
   15    6   20 1     
   16    7   14 ar    
   17    7   21 1     
   18    8   15 1     
   19    8   22 1     
   20   10   15 1     
   21   10   23 1     
   22   12   24 1     
   23   12   25 1     
   24   12   26 1     
   25   13   16 ar    
   26   13   27 1     
   27   14   16 ar    
   28   14   28 1     
   29   15   17 2     
   30   16   29 1     
@<TRIPOS>SUBSTRUCTURE
      1 RES1           1
@<TRIPOS>SET
DONOR_HYDROGENS      STATIC     ATOMS    <user>   **** ""
2 22 23
ATOM$RED        STATIC     ATOMS    COLORGROUP SYSTEM
2 22 23
@<TRIPOS>COMMENT
> <Gold.Version>
2022.3.0

> <Gold.Id.Protein>
unknown|4v3u_clean|pdb

> <Gold.Protein.RotatedTorsions>
[  576  535  534  533 ] final -137.61 input   59.97 | X-H torsion
[ 2566 2531 2532 2533 ] final  -67.08 input  112.83 | X-H torsion
[ 2636 2605 2606 2607 ] final -118.90 input   41.41 | X-H torsion
[ 26091 26055 26054 26052 ] final   51.81 input   60.03 | X-H torsion
[ 27195 27136 27135 27131 ] final   66.78 input   60.01 | X-H torsion
[  728  681  682  683 ] final   79.52 input  102.19 | X-H torsion
[ 7435 7417 7418 7419 ] final   13.64 input   81.33 | X-H torsion
[ 7494 7460 7461 7462 ] final   49.49 input  103.22 | X-H torsion
[ 7528 7515 7516 7517 ] final    4.00 input   88.53 | X-H torsion
[ 17198 17178 17179 17180 ] final -115.88 input   47.40 | X-H torsion
[ 17258 17224 17225 17226 ] final  133.62 input  102.98 | X-H torsion
[ 18298 18277 18278 18279 ] final  175.30 input   30.52 | X-H torsion
[ 18328 18315 18316 18317 ] final   46.67 input   53.77 | X-H torsion
[ 18417 18373 18374 18375 ] final -131.48 input   42.60 | X-H torsion
[ 18502 18463 18464 18465 ] final -153.87 input  104.04 | X-H torsion
[ 18570 18535 18536 18537 ] final  -42.84 input   89.36 | X-H torsion
[ 18510 18474 18473 18471 ] final  -96.31 input   60.01 | X-H torsion
[ 17306 17285 17286 17287 ] final -149.82 input   49.80 | X-H torsion
[ 18250 18212 18213 18214 ] final   59.89 input   46.53 | X-H torsion
[ 18302 18282 18281 18278 ] final  155.24 input   59.98 | X-H torsion
[ 10118 10098 10097 10094 ] final  154.91 input   59.98 | X-H torsion
[ 17002 16966 16965 16963 ] final -148.61 input   59.99 | X-H torsion
[ 11499 11466 11467 11468 ] final  139.64 input   46.07 | X-H torsion
[ 11572 11531 11532 11533 ] final   39.56 input  118.20 | X-H torsion
[ 11648 11607 11608 11609 ] final  -84.30 input   50.96 | X-H torsion
[ 11438 11418 11417 11414 ] final -104.87 input   60.01 | X-H torsion
[ 27199 27138 27137 27135 ] final  163.57 input   60.02 | X-H torsion
[ 19310 19290 19289 19286 ] final  117.44 input   60.00 | X-H torsion
[ 10154 10134 10135 10136 ] final  107.32 input   25.69 | X-H torsion
[ 17361 17335 17336 17337 ] final  -93.86 input   65.66 | X-H torsion
[ 27200  684  683  682 ] final  -91.82 input    0.00 | X-H torsion
[ 27203 2534 2533 2532 ] final  117.97 input    0.00 | X-H torsion
[ 27226 7339 7338 7337 ] final    2.59 input    0.00 | X-H torsion
[ 27232 17131 17130 17129 ] final  139.08 input    0.00 | X-H torsion
[ 27236 18215 18214 18213 ] final   92.49 input    0.00 | X-H torsion
[ 27239 18280 18279 18278 ] final   86.94 input    0.00 | X-H torsion
[ 27242 18318 18317 18316 ] final  -64.95 input    0.00 | X-H torsion
[ 27245 18376 18375 18374 ] final   88.33 input   -0.00 | X-H torsion
[ 27253 17181 17180 17179 ] final  -25.77 input    0.00 | X-H torsion
[ 27255 17058 17057 17056 ] final -154.64 input    0.00 | X-H torsion
[ 27257 17227 17226 17225 ] final  106.63 input   -0.00 | X-H torsion
[ 27267 10137 10136 10135 ] final  142.81 input    0.00 | X-H torsion
[ 27269 11416 11415 11414 ] final  101.69 input    0.00 | X-H torsion
[ 27275 11610 11609 11608 ] final   56.97 input    0.00 | X-H torsion
[ 27284 18693 18692 18691 ] final -162.92 input    0.00 | X-H torsion

> <Gold.Protein.ActiveResidues>
 LYS309  TRP311  GLU314  MET341  HIS342  TRP414  ALA417  ARG419  CYS420  VAL421 
 GLY422  ARG423  SER462  ALA463  SER482  GLN483  LEU484  ILE485  ARG486  ALA502 
 TRP566  TYR567  LEU569  PRO570  ALA571  VAL572  SER573  ASN574  MET575  PHE589 
 SER590  GLY591  TRP592  TYR593  MET594  GLU597  ILE598  ARG601  ASP602  ASP605 
 SER607  ARG608  TRP683  HIS697  GLU699  TYR711  HEM750  H4B760 

> <Gold.Protein.RotatedAtoms>
  247.2119   25.5443   41.9398 H   0  0  0  0  0  0  0  0  0  0  0  0  # atno 576  bound_to 535 
  245.9639   24.4682   41.7587 H   0  0  0  0  0  0  0  0  0  0  0  0  # atno 577  bound_to 535 
  247.3976   24.2155   40.9669 H   0  0  0  0  0  0  0  0  0  0  0  0  # atno 578  bound_to 535 
  245.1297   24.5565   33.6987 H   0  0  0  0  0  0  0  0  0  0  0  0  # atno 728  bound_to 681 
  238.3317   19.4133   38.0593 H   0  0  0  0  0  0  0  0  0  0  0  0  # atno 2566 bound_to 2531
  239.4746   18.1834   40.2253 H   0  0  0  0  0  0  0  0  0  0  0  0  # atno 2636 bound_to 2605
  239.2850    5.8367   35.0650 H   0  0  0  0  0  0  0  0  0  0  0  0  # atno 7435 bound_to 7417
  242.3742    4.2667   32.8573 H   0  0  0  0  0  0  0  0  0  0  0  0  # atno 7494 bound_to 7460
  241.4010    1.9695   32.7667 H   0  0  0  0  0  0  0  0  0  0  0  0  # atno 7528 bound_to 7515
  247.0940   -4.8156   36.0928 H   0  0  0  0  0  0  0  0  0  0  0  0  # atno 10118 bound_to 10098
  250.8016   -4.0770   39.8584 H   0  0  0  0  0  0  0  0  0  0  0  0  # atno 10154 bound_to 10134
  254.9850   13.4047   42.2297 H   0  0  0  0  0  0  0  0  0  0  0  0  # atno 11438 bound_to 11418
  254.2837   10.4990   42.0762 H   0  0  0  0  0  0  0  0  0  0  0  0  # atno 11499 bound_to 11466
  255.9607    6.5683   41.5284 H   0  0  0  0  0  0  0  0  0  0  0  0  # atno 11572 bound_to 11531
  258.2511    6.7573   41.8455 H   0  0  0  0  0  0  0  0  0  0  0  0  # atno 11648 bound_to 11607
  256.8899    9.8427   35.4424 H   0  0  0  0  0  0  0  0  0  0  0  0  # atno 17002 bound_to 16966
  253.1104    3.8784   37.8038 H   0  0  0  0  0  0  0  0  0  0  0  0  # atno 17198 bound_to 17178
  250.8321    4.8554   40.1877 H   0  0  0  0  0  0  0  0  0  0  0  0  # atno 17258 bound_to 17224
  251.4130    6.1820   43.3935 H   0  0  0  0  0  0  0  0  0  0  0  0  # atno 17306 bound_to 17285
  250.8452    7.7765   46.3675 H   0  0  0  0  0  0  0  0  0  0  0  0  # atno 17361 bound_to 17335
  250.0269    2.9785   43.8123 H   0  0  0  0  0  0  0  0  0  0  0  0  # atno 18250 bound_to 18212
  250.8429    0.7295   41.6264 H   0  0  0  0  0  0  0  0  0  0  0  0  # atno 18298 bound_to 18277
  253.7094   -1.5753   39.5679 H   0  0  0  0  0  0  0  0  0  0  0  0  # atno 18302 bound_to 18282
  250.7179    0.8305   37.0902 H   0  0  0  0  0  0  0  0  0  0  0  0  # atno 18328 bound_to 18315
  250.7859   -0.6851   34.8064 H   0  0  0  0  0  0  0  0  0  0  0  0  # atno 18417 bound_to 18373
  252.1047    1.6701   32.2919 H   0  0  0  0  0  0  0  0  0  0  0  0  # atno 18502 bound_to 18463
  255.6074    8.1048   33.1610 H   0  0  0  0  0  0  0  0  0  0  0  0  # atno 18510 bound_to 18474
  250.9563    3.6123   29.2544 H   0  0  0  0  0  0  0  0  0  0  0  0  # atno 18570 bound_to 18535
  252.8319   21.9331   34.2114 H   0  0  0  0  0  0  0  0  0  0  0  0  # atno 19310 bound_to 19290
  242.8209   11.9981   39.8123 H   0  0  0  0  0  0  0  0  0  0  0  0  # atno 26091 bound_to 26055
  242.9035   19.5327   31.1532 H   0  0  0  0  0  0  0  0  0  0  0  0  # atno 27195 bound_to 27136
  239.3244   19.5708   33.9027 H   0  0  0  0  0  0  0  0  0  0  0  0  # atno 27199 bound_to 27138
  249.5436   24.3211   35.7046 LP  0  0  0  0  0  0  0  0  0  0  0  0  # atno 27200 bound_to 684 
  249.3003   22.8033   34.9065 LP  0  0  0  0  0  0  0  0  0  0  0  0  # atno 27201 bound_to 684 
  239.6904   20.5119   38.0880 LP  0  0  0  0  0  0  0  0  0  0  0  0  # atno 27202 bound_to 2531
  240.5589   16.4657   41.0040 LP  0  0  0  0  0  0  0  0  0  0  0  0  # atno 27203 bound_to 2534
  239.3202   16.1437   39.8369 LP  0  0  0  0  0  0  0  0  0  0  0  0  # atno 27204 bound_to 2534
  239.6720   19.8632   40.6666 LP  0  0  0  0  0  0  0  0  0  0  0  0  # atno 27205 bound_to 2605
  243.1762   13.5667   39.5671 LP  0  0  0  0  0  0  0  0  0  0  0  0  # atno 27209 bound_to 26055
  241.6246   13.0998   39.7703 LP  0  0  0  0  0  0  0  0  0  0  0  0  # atno 27210 bound_to 26055
  244.1791   19.1529   32.0902 LP  0  0  0  0  0  0  0  0  0  0  0  0  # atno 27213 bound_to 27136
  243.4050   20.5757   32.2976 LP  0  0  0  0  0  0  0  0  0  0  0  0  # atno 27214 bound_to 27136
  245.2918   25.6944   35.0094 LP  0  0  0  0  0  0  0  0  0  0  0  0  # atno 27215 bound_to 681 
  241.2894    8.6078   34.1817 LP  0  0  0  0  0  0  0  0  0  0  0  0  # atno 27226 bound_to 7339
  241.8812    7.0017   33.9168 LP  0  0  0  0  0  0  0  0  0  0  0  0  # atno 27227 bound_to 7339
  240.5226    6.5854   36.0414 LP  0  0  0  0  0  0  0  0  0  0  0  0  # atno 27228 bound_to 7417
  240.7432    4.8844   33.0053 LP  0  0  0  0  0  0  0  0  0  0  0  0  # atno 27229 bound_to 7460
  242.7441    2.5514   31.8092 LP  0  0  0  0  0  0  0  0  0  0  0  0  # atno 27230 bound_to 7515
  252.3250    2.0336   38.3805 LP  0  0  0  0  0  0  0  0  0  0  0  0  # atno 27232 bound_to 17131
  251.6360    2.6130   36.9008 LP  0  0  0  0  0  0  0  0  0  0  0  0  # atno 27233 bound_to 17131
  254.4307    4.7806   38.5066 LP  0  0  0  0  0  0  0  0  0  0  0  0  # atno 27234 bound_to 17178
  252.2843    4.8341   41.1641 LP  0  0  0  0  0  0  0  0  0  0  0  0  # atno 27235 bound_to 17224
  251.7649    2.6256   41.5364 LP  0  0  0  0  0  0  0  0  0  0  0  0  # atno 27236 bound_to 18215
  250.1799    3.0469   40.9794 LP  0  0  0  0  0  0  0  0  0  0  0  0  # atno 27237 bound_to 18215
  249.6567   -0.3620   40.9535 LP  0  0  0  0  0  0  0  0  0  0  0  0  # atno 27238 bound_to 18277
  249.0773   -1.7793   39.2247 LP  0  0  0  0  0  0  0  0  0  0  0  0  # atno 27239 bound_to 18280
  250.5903   -2.4901   38.7716 LP  0  0  0  0  0  0  0  0  0  0  0  0  # atno 27240 bound_to 18280
  250.2949   -0.4413   38.2160 LP  0  0  0  0  0  0  0  0  0  0  0  0  # atno 27241 bound_to 18315
  252.6204   -0.5703   35.9163 LP  0  0  0  0  0  0  0  0  0  0  0  0  # atno 27242 bound_to 18318
  252.4933   -1.9446   34.8698 LP  0  0  0  0  0  0  0  0  0  0  0  0  # atno 27243 bound_to 18318
  249.5063   -0.5624   33.6269 LP  0  0  0  0  0  0  0  0  0  0  0  0  # atno 27244 bound_to 18373
  249.5804    2.1098   32.8800 LP  0  0  0  0  0  0  0  0  0  0  0  0  # atno 27245 bound_to 18376
  249.1260    1.1368   31.5210 LP  0  0  0  0  0  0  0  0  0  0  0  0  # atno 27246 bound_to 18376
  251.8752    0.7501   30.8188 LP  0  0  0  0  0  0  0  0  0  0  0  0  # atno 27247 bound_to 18463
  249.3464    3.6300   29.9349 LP  0  0  0  0  0  0  0  0  0  0  0  0  # atno 27248 bound_to 18535
  254.4587    5.5280   41.3920 LP  0  0  0  0  0  0  0  0  0  0  0  0  # atno 27253 bound_to 17181
  253.2822    6.7991   41.3884 LP  0  0  0  0  0  0  0  0  0  0  0  0  # atno 27254 bound_to 17181
  256.0521    4.1975   37.5250 LP  0  0  0  0  0  0  0  0  0  0  0  0  # atno 27255 bound_to 17058
  257.6051    3.7371   36.9117 LP  0  0  0  0  0  0  0  0  0  0  0  0  # atno 27256 bound_to 17058
  251.3529    4.2389   44.0058 LP  0  0  0  0  0  0  0  0  0  0  0  0  # atno 27257 bound_to 17227
  249.6894    4.6965   43.8529 LP  0  0  0  0  0  0  0  0  0  0  0  0  # atno 27258 bound_to 17227
  255.5872    7.0453   34.3959 LP  0  0  0  0  0  0  0  0  0  0  0  0  # atno 27259 bound_to 18474
  254.2714    7.9588   34.0786 LP  0  0  0  0  0  0  0  0  0  0  0  0  # atno 27260 bound_to 18474
  251.4070    7.8928   43.7396 LP  0  0  0  0  0  0  0  0  0  0  0  0  # atno 27261 bound_to 17285
  250.7421    1.7320   44.8048 LP  0  0  0  0  0  0  0  0  0  0  0  0  # atno 27262 bound_to 18212
  252.1145   -1.8700   39.4405 LP  0  0  0  0  0  0  0  0  0  0  0  0  # atno 27263 bound_to 18282
  252.7607   -1.4676   40.8852 LP  0  0  0  0  0  0  0  0  0  0  0  0  # atno 27264 bound_to 18282
  248.7111   -4.8100   35.9110 LP  0  0  0  0  0  0  0  0  0  0  0  0  # atno 27265 bound_to 10098
  247.9312   -3.4440   36.3498 LP  0  0  0  0  0  0  0  0  0  0  0  0  # atno 27266 bound_to 10098
  249.1551   -1.3910   42.5498 LP  0  0  0  0  0  0  0  0  0  0  0  0  # atno 27267 bound_to 10137
  250.5193   -1.8135   41.5698 LP  0  0  0  0  0  0  0  0  0  0  0  0  # atno 27268 bound_to 10137
  251.8956    9.6879   42.1334 LP  0  0  0  0  0  0  0  0  0  0  0  0  # atno 27269 bound_to 11416
  252.0104    9.0225   43.7284 LP  0  0  0  0  0  0  0  0  0  0  0  0  # atno 27270 bound_to 11416
  256.7139    9.1588   36.9084 LP  0  0  0  0  0  0  0  0  0  0  0  0  # atno 27271 bound_to 16966
  255.8486    8.6077   35.6379 LP  0  0  0  0  0  0  0  0  0  0  0  0  # atno 27272 bound_to 16966
  254.8173    9.8619   43.6175 LP  0  0  0  0  0  0  0  0  0  0  0  0  # atno 27273 bound_to 11466
  255.3965    6.7871   43.1674 LP  0  0  0  0  0  0  0  0  0  0  0  0  # atno 27274 bound_to 11531
  257.3872    7.5994   38.7061 LP  0  0  0  0  0  0  0  0  0  0  0  0  # atno 27275 bound_to 11610
  258.5287    8.0929   37.5006 LP  0  0  0  0  0  0  0  0  0  0  0  0  # atno 27276 bound_to 11610
  257.7264    5.6157   40.6314 LP  0  0  0  0  0  0  0  0  0  0  0  0  # atno 27279 bound_to 11607
  253.8208   12.9578   41.1845 LP  0  0  0  0  0  0  0  0  0  0  0  0  # atno 27282 bound_to 11418
  254.7232   11.8253   41.9393 LP  0  0  0  0  0  0  0  0  0  0  0  0  # atno 27283 bound_to 11418
  253.2716   11.7130   29.2892 LP  0  0  0  0  0  0  0  0  0  0  0  0  # atno 27284 bound_to 18693
  251.8269   11.6483   30.2425 LP  0  0  0  0  0  0  0  0  0  0  0  0  # atno 27285 bound_to 18693

> <Gold.Score>
     Fitness  S(hb_ext) S(vdw_ext)  S(hb_int)    S(int)      intcor
     34.91       6.34      21.70       0.00      -1.27      -0.80

> <Gold.Goldscore.Fitness>
34.9091

> <Gold.Goldscore.Internal.Vdw>
-1.5050

> <Gold.Goldscore.Internal.Torsion>
-0.5638

> <Gold.Goldscore.External.Vdw>
21.7003

> <Gold.Goldscore.Internal.HBond>
0.0000

> <Gold.Goldscore.External.HBond>
6.3366

> <Gold.Goldscore.Internal.Correction>
-0.8033

> <Gold.Goldscore.Hbonds>
donor molecule, donor type, donor heavy atom, donor atom, acceptor molecule, acceptor atom, score
      P1  H 11473 11505       L1    17  0.04
      P1  H 19354 19405       L1    17  0.92
      L1  H    10    23       P1 18474  0.36

> <Gold.Goldscore.Internal.Vdw.Weighted>
-1.5050

> <Gold.Goldscore.Internal.Torsion.Weighted>
-0.5638

> <Gold.Goldscore.External.Vdw.Weighted>
29.8379

> <Gold.Goldscore.Internal.HBond.Weighted>
0.0000

> <Gold.Goldscore.External.HBond.Weighted>
6.3366

> <Gold.Goldscore.Internal.Correction.Weighted>
-0.8033

> <Gold.Rescore>
     Score     S(PLP)   S(hbond)     S(cho)   S(metal)  DE(clash)   DE(tors)     intcor
     28.16     -27.48       0.99       0.00       0.00       1.92       0.19       ----

> <Gold.PLP.Fitness>
28.1586

> <Gold.PLP.PLP>
-27.4808

> <Gold.PLP.part.hbond>
-4.2943

> <Gold.PLP.part.metal>
0.0000

> <Gold.PLP.part.buried>
-2.7591

> <Gold.PLP.part.nonpolar>
-23.3640

> <Gold.PLP.part.repulsive>
1.1096

> <Gold.PLP.ligand.clash>
1.9200

> <Gold.PLP.ligand.torsion>
0.1916

> <Gold.PLP.Chemscore.Hbond>
0.9937

> <Gold.PLP.Chemscore.CHOScore>
0.0000

> <Gold.PLP.Chemscore.Metal>
0.0000

> <Gold.Chemscore.Hbonds>
donor molecule, donor type, donor heavy atom, donor atom, acceptor molecule, acceptor atom, score
      P1  H 19354 19405       L1    17  1.00

> <Gold.PLP.Chemscore.Internal.Correction>
   9.000000E+99

