#       Name:                CT1002167954
#       Creating user name   hitesit
#       Creation time:       Sun Apr 16 23:04:50 2023


#       File generated by GOLD software.
#

@<TRIPOS>MOLECULE
CT1002167954|ligand_prepared|mol2|1|dock6
    29    30     1
SMALL
NO_CHARGES


@<TRIPOS>ATOM
      1 C1         250.2862  14.3611  34.9861 C.3            1 RES1               0.0000
      2 C2         250.8352  15.7994  34.8922 C.ar           1 RES1               0.0000
      3 C3         248.7667  14.4857  35.0475 C.2            1 RES1               0.0000
      4 C4         250.8009  13.6266  33.7532 C.2            1 RES1               0.0000
      5 C5         250.7667  13.5895  36.2372 C.3            1 RES1               0.0000
      6 C6         250.6705  16.5462  33.7294 C.ar           1 RES1               0.0000
      7 C7         251.5050  16.3928  35.9589 C.ar           1 RES1               0.0000
      8 N8         248.0593  14.1449  33.9324 N.am           1 RES1               0.0000
      9 O9         248.2004  14.9140  36.0455 O.2            1 RES1               0.0000
     10 N10        249.8836  13.2105  32.8241 N.am           1 RES1               0.0000
     11 O11        251.9941  13.4192  33.5697 O.2            1 RES1               0.0000
     12 C12        250.4190  12.1093  36.2157 C.3            1 RES1               0.0000
     13 C13        251.1551  17.8404  33.6374 C.ar           1 RES1               0.0000
     14 C14        251.9890  17.6872  35.8646 C.ar           1 RES1               0.0000
     15 C15        248.5390  13.4634  32.8429 C.2            1 RES1               0.0000
     16 C16        251.8142  18.4119  34.7049 C.ar           1 RES1               0.0000
     17 O17        247.7860  13.1029  31.9428 O.2            1 RES1               0.0000
     18 H18        251.8554  13.6953  36.3208 H              1 RES1               0.0000
     19 H19        250.3162  14.0450  37.1277 H              1 RES1               0.0000
     20 H20        250.1565  16.1123  32.8782 H              1 RES1               0.0000
     21 H21        251.6550  15.8412  36.8807 H              1 RES1               0.0000
     22 H22        247.0833  14.4225  33.9062 H              1 RES1               0.0000
     23 H23        250.2357  12.6612  32.0465 H              1 RES1               0.0000
     24 H24        250.7787  11.6155  37.1159 H              1 RES1               0.0000
     25 H25        249.3419  11.9669  36.1584 H              1 RES1               0.0000
     26 H26        250.8719  11.6192  35.3563 H              1 RES1               0.0000
     27 H27        251.0161  18.4061  32.7220 H              1 RES1               0.0000
     28 H28        252.5077  18.1327  36.7070 H              1 RES1               0.0000
     29 H29        252.1934  19.4259  34.6327 H              1 RES1               0.0000
@<TRIPOS>BOND
    1    1    2 1     
    2    1    3 1     
    3    1    4 1     
    4    1    5 1     
    5    2    6 ar    
    6    2    7 ar    
    7    3    8 1     
    8    3    9 2     
    9    4   10 1     
   10    4   11 2     
   11    5   12 1     
   12    5   18 1     
   13    5   19 1     
   14    6   13 ar    
   15    6   20 1     
   16    7   14 ar    
   17    7   21 1     
   18    8   15 1     
   19    8   22 1     
   20   10   15 1     
   21   10   23 1     
   22   12   24 1     
   23   12   25 1     
   24   12   26 1     
   25   13   16 ar    
   26   13   27 1     
   27   14   16 ar    
   28   14   28 1     
   29   15   17 2     
   30   16   29 1     
@<TRIPOS>SUBSTRUCTURE
      1 RES1           1
@<TRIPOS>SET
DONOR_HYDROGENS      STATIC     ATOMS    <user>   **** ""
2 22 23
ATOM$RED        STATIC     ATOMS    COLORGROUP SYSTEM
2 22 23
@<TRIPOS>COMMENT
> <Gold.Version>
2022.3.0

> <Gold.Id.Protein>
unknown|4v3u_clean|pdb

> <Gold.Protein.RotatedTorsions>
[  576  535  534  533 ] final   79.25 input   59.97 | X-H torsion
[ 2566 2531 2532 2533 ] final   53.18 input  112.83 | X-H torsion
[ 2636 2605 2606 2607 ] final  126.63 input   41.41 | X-H torsion
[ 26091 26055 26054 26052 ] final   52.55 input   60.03 | X-H torsion
[ 27195 27136 27135 27131 ] final -106.28 input   60.01 | X-H torsion
[  728  681  682  683 ] final   79.26 input  102.19 | X-H torsion
[ 7435 7417 7418 7419 ] final   62.62 input   81.33 | X-H torsion
[ 7494 7460 7461 7462 ] final  -57.66 input  103.22 | X-H torsion
[ 7528 7515 7516 7517 ] final -111.50 input   88.53 | X-H torsion
[ 17198 17178 17179 17180 ] final -157.24 input   47.40 | X-H torsion
[ 17258 17224 17225 17226 ] final  -32.96 input  102.98 | X-H torsion
[ 18298 18277 18278 18279 ] final   97.25 input   30.52 | X-H torsion
[ 18328 18315 18316 18317 ] final -166.45 input   53.77 | X-H torsion
[ 18417 18373 18374 18375 ] final -102.18 input   42.60 | X-H torsion
[ 18502 18463 18464 18465 ] final   85.84 input  104.04 | X-H torsion
[ 18570 18535 18536 18537 ] final   12.47 input   89.36 | X-H torsion
[ 18510 18474 18473 18471 ] final  -71.82 input   60.01 | X-H torsion
[ 17306 17285 17286 17287 ] final  -45.70 input   49.80 | X-H torsion
[ 18250 18212 18213 18214 ] final   47.66 input   46.53 | X-H torsion
[ 18302 18282 18281 18278 ] final  -94.46 input   59.98 | X-H torsion
[ 10118 10098 10097 10094 ] final   71.24 input   59.98 | X-H torsion
[ 17002 16966 16965 16963 ] final -124.33 input   59.99 | X-H torsion
[ 11499 11466 11467 11468 ] final  -73.18 input   46.07 | X-H torsion
[ 11572 11531 11532 11533 ] final  -12.67 input  118.20 | X-H torsion
[ 11648 11607 11608 11609 ] final  -35.03 input   50.96 | X-H torsion
[ 11438 11418 11417 11414 ] final   13.27 input   60.01 | X-H torsion
[ 27199 27138 27137 27135 ] final  -18.00 input   60.02 | X-H torsion
[ 19310 19290 19289 19286 ] final   17.27 input   60.00 | X-H torsion
[ 10154 10134 10135 10136 ] final   44.86 input   25.69 | X-H torsion
[ 17361 17335 17336 17337 ] final    0.25 input   65.66 | X-H torsion
[ 27200  684  683  682 ] final  -75.39 input    0.00 | X-H torsion
[ 27203 2534 2533 2532 ] final  138.12 input    0.00 | X-H torsion
[ 27226 7339 7338 7337 ] final -157.21 input    0.00 | X-H torsion
[ 27232 17131 17130 17129 ] final   25.23 input    0.00 | X-H torsion
[ 27236 18215 18214 18213 ] final  -43.36 input    0.00 | X-H torsion
[ 27239 18280 18279 18278 ] final  -45.21 input    0.00 | X-H torsion
[ 27242 18318 18317 18316 ] final   11.15 input    0.00 | X-H torsion
[ 27245 18376 18375 18374 ] final  -28.32 input   -0.00 | X-H torsion
[ 27253 17181 17180 17179 ] final   50.50 input    0.00 | X-H torsion
[ 27255 17058 17057 17056 ] final   -5.14 input    0.00 | X-H torsion
[ 27257 17227 17226 17225 ] final   50.29 input   -0.00 | X-H torsion
[ 27267 10137 10136 10135 ] final   82.84 input    0.00 | X-H torsion
[ 27269 11416 11415 11414 ] final -148.96 input    0.00 | X-H torsion
[ 27275 11610 11609 11608 ] final  156.14 input    0.00 | X-H torsion
[ 27284 18693 18692 18691 ] final   -9.42 input    0.00 | X-H torsion

> <Gold.Protein.ActiveResidues>
 LYS309  TRP311  GLU314  MET341  HIS342  TRP414  ALA417  ARG419  CYS420  VAL421 
 GLY422  ARG423  SER462  ALA463  SER482  GLN483  LEU484  ILE485  ARG486  ALA502 
 TRP566  TYR567  LEU569  PRO570  ALA571  VAL572  SER573  ASN574  MET575  PHE589 
 SER590  GLY591  TRP592  TYR593  MET594  GLU597  ILE598  ARG601  ASP602  ASP605 
 SER607  ARG608  TRP683  HIS697  GLU699  TYR711  HEM750  H4B760 

> <Gold.Protein.RotatedAtoms>
  247.0707   24.0131   40.9737 H   0  0  0  0  0  0  0  0  0  0  0  0  # atno 576  bound_to 535 
  247.5081   25.4224   41.7293 H   0  0  0  0  0  0  0  0  0  0  0  0  # atno 577  bound_to 535 
  245.9932   24.7923   41.9628 H   0  0  0  0  0  0  0  0  0  0  0  0  # atno 578  bound_to 535 
  245.1324   24.5585   33.6966 H   0  0  0  0  0  0  0  0  0  0  0  0  # atno 728  bound_to 681 
  239.2202   20.4092   38.8133 H   0  0  0  0  0  0  0  0  0  0  0  0  # atno 2566 bound_to 2531
  240.4063   19.2670   40.6385 H   0  0  0  0  0  0  0  0  0  0  0  0  # atno 2636 bound_to 2605
  239.3588    5.5502   35.7312 H   0  0  0  0  0  0  0  0  0  0  0  0  # atno 7435 bound_to 7417
  241.0739    3.9722   33.3791 H   0  0  0  0  0  0  0  0  0  0  0  0  # atno 7494 bound_to 7460
  241.9847    2.1909   31.4031 H   0  0  0  0  0  0  0  0  0  0  0  0  # atno 7528 bound_to 7515
  248.2648   -5.1869   35.8664 H   0  0  0  0  0  0  0  0  0  0  0  0  # atno 10118 bound_to 10098
  250.3406   -3.3085   40.0468 H   0  0  0  0  0  0  0  0  0  0  0  0  # atno 10154 bound_to 10134
  254.7418   11.8406   41.9593 H   0  0  0  0  0  0  0  0  0  0  0  0  # atno 11438 bound_to 11418
  254.3286    9.7761   43.6253 H   0  0  0  0  0  0  0  0  0  0  0  0  # atno 11499 bound_to 11466
  256.1980    7.2149   41.8883 H   0  0  0  0  0  0  0  0  0  0  0  0  # atno 11572 bound_to 11531
  257.7959    7.0360   41.3388 H   0  0  0  0  0  0  0  0  0  0  0  0  # atno 11648 bound_to 11607
  256.6502    9.6562   35.1917 H   0  0  0  0  0  0  0  0  0  0  0  0  # atno 17002 bound_to 16966
  253.6090    3.5127   37.8837 H   0  0  0  0  0  0  0  0  0  0  0  0  # atno 17198 bound_to 17178
  252.1939    4.7086   41.3020 H   0  0  0  0  0  0  0  0  0  0  0  0  # atno 17258 bound_to 17224
  250.5769    7.2146   43.7950 H   0  0  0  0  0  0  0  0  0  0  0  0  # atno 17306 bound_to 17285
  249.8705    7.9584   45.5369 H   0  0  0  0  0  0  0  0  0  0  0  0  # atno 17361 bound_to 17335
  250.1959    2.9821   43.7302 H   0  0  0  0  0  0  0  0  0  0  0  0  # atno 18250 bound_to 18212
  250.8827   -0.3773   41.5352 H   0  0  0  0  0  0  0  0  0  0  0  0  # atno 18298 bound_to 18277
  252.9171   -1.4405   40.8769 H   0  0  0  0  0  0  0  0  0  0  0  0  # atno 18302 bound_to 18282
  249.8736   -0.1747   38.1784 H   0  0  0  0  0  0  0  0  0  0  0  0  # atno 18328 bound_to 18315
  250.6557   -0.2610   34.8256 H   0  0  0  0  0  0  0  0  0  0  0  0  # atno 18417 bound_to 18373
  252.6809    1.0304   31.0048 H   0  0  0  0  0  0  0  0  0  0  0  0  # atno 18502 bound_to 18463
  255.2542    8.2857   33.1499 H   0  0  0  0  0  0  0  0  0  0  0  0  # atno 18510 bound_to 18474
  250.6671    4.3297   29.5306 H   0  0  0  0  0  0  0  0  0  0  0  0  # atno 18570 bound_to 18535
  253.2382   21.2944   32.9915 H   0  0  0  0  0  0  0  0  0  0  0  0  # atno 19310 bound_to 19290
  242.8095   11.9947   39.8138 H   0  0  0  0  0  0  0  0  0  0  0  0  # atno 26091 bound_to 26055
  244.1329   19.8722   32.5206 H   0  0  0  0  0  0  0  0  0  0  0  0  # atno 27195 bound_to 27136
  240.5278   18.1537   34.1219 H   0  0  0  0  0  0  0  0  0  0  0  0  # atno 27199 bound_to 27138
  249.3977   24.2151   35.8740 LP  0  0  0  0  0  0  0  0  0  0  0  0  # atno 27200 bound_to 684 
  249.4461   22.9093   34.7370 LP  0  0  0  0  0  0  0  0  0  0  0  0  # atno 27201 bound_to 684 
  238.8223   19.5388   37.3512 LP  0  0  0  0  0  0  0  0  0  0  0  0  # atno 27202 bound_to 2531
  240.3129   16.4931   41.1788 LP  0  0  0  0  0  0  0  0  0  0  0  0  # atno 27203 bound_to 2534
  239.5662   16.1163   39.6621 LP  0  0  0  0  0  0  0  0  0  0  0  0  # atno 27204 bound_to 2534
  238.7626   18.8055   40.2633 LP  0  0  0  0  0  0  0  0  0  0  0  0  # atno 27205 bound_to 2605
  243.1850   13.5584   39.5674 LP  0  0  0  0  0  0  0  0  0  0  0  0  # atno 27209 bound_to 26055
  241.6273   13.1115   39.7685 LP  0  0  0  0  0  0  0  0  0  0  0  0  # atno 27210 bound_to 26055
  242.8514   20.4229   31.6818 LP  0  0  0  0  0  0  0  0  0  0  0  0  # atno 27213 bound_to 27136
  243.4954   18.9641   31.3297 LP  0  0  0  0  0  0  0  0  0  0  0  0  # atno 27214 bound_to 27136
  245.2891   25.6924   35.0115 LP  0  0  0  0  0  0  0  0  0  0  0  0  # atno 27215 bound_to 681 
  241.6840    7.0244   33.6869 LP  0  0  0  0  0  0  0  0  0  0  0  0  # atno 27226 bound_to 7339
  241.4866    8.5851   34.4116 LP  0  0  0  0  0  0  0  0  0  0  0  0  # atno 27227 bound_to 7339
  240.4499    6.8676   35.3851 LP  0  0  0  0  0  0  0  0  0  0  0  0  # atno 27228 bound_to 7417
  242.0009    5.1692   32.5007 LP  0  0  0  0  0  0  0  0  0  0  0  0  # atno 27229 bound_to 7460
  242.1763    2.3361   33.1356 LP  0  0  0  0  0  0  0  0  0  0  0  0  # atno 27230 bound_to 7515
  252.3063    1.9473   36.9318 LP  0  0  0  0  0  0  0  0  0  0  0  0  # atno 27232 bound_to 17131
  251.6547    2.6993   38.3494 LP  0  0  0  0  0  0  0  0  0  0  0  0  # atno 27233 bound_to 17131
  253.9427    5.1386   38.4283 LP  0  0  0  0  0  0  0  0  0  0  0  0  # atno 27234 bound_to 17178
  250.9653    4.9763   40.0848 LP  0  0  0  0  0  0  0  0  0  0  0  0  # atno 27235 bound_to 17224
  250.2613    3.1823   41.6109 LP  0  0  0  0  0  0  0  0  0  0  0  0  # atno 27236 bound_to 18215
  251.6835    2.4903   40.9049 LP  0  0  0  0  0  0  0  0  0  0  0  0  # atno 27237 bound_to 18215
  249.6177    0.7220   41.0428 LP  0  0  0  0  0  0  0  0  0  0  0  0  # atno 27238 bound_to 18277
  250.5648   -2.2766   39.4403 LP  0  0  0  0  0  0  0  0  0  0  0  0  # atno 27239 bound_to 18280
  249.1028   -1.9928   38.5560 LP  0  0  0  0  0  0  0  0  0  0  0  0  # atno 27240 bound_to 18280
  251.1120    0.5315   37.1628 LP  0  0  0  0  0  0  0  0  0  0  0  0  # atno 27241 bound_to 18315
  252.3270   -1.5651   36.1693 LP  0  0  0  0  0  0  0  0  0  0  0  0  # atno 27242 bound_to 18318
  252.7867   -0.9499   34.6168 LP  0  0  0  0  0  0  0  0  0  0  0  0  # atno 27243 bound_to 18318
  249.6349   -0.9812   33.6079 LP  0  0  0  0  0  0  0  0  0  0  0  0  # atno 27244 bound_to 18373
  249.0882    0.8168   32.3716 LP  0  0  0  0  0  0  0  0  0  0  0  0  # atno 27245 bound_to 18376
  249.6182    2.4298   32.0295 LP  0  0  0  0  0  0  0  0  0  0  0  0  # atno 27246 bound_to 18376
  251.3209    1.3656   32.0572 LP  0  0  0  0  0  0  0  0  0  0  0  0  # atno 27247 bound_to 18463
  249.6287    2.9301   29.6655 LP  0  0  0  0  0  0  0  0  0  0  0  0  # atno 27248 bound_to 18535
  254.2362    6.2197   40.6072 LP  0  0  0  0  0  0  0  0  0  0  0  0  # atno 27253 bound_to 17181
  253.5048    6.1075   42.1732 LP  0  0  0  0  0  0  0  0  0  0  0  0  # atno 27254 bound_to 17181
  257.5381    3.4743   37.2776 LP  0  0  0  0  0  0  0  0  0  0  0  0  # atno 27255 bound_to 17058
  256.1190    4.4603   37.1591 LP  0  0  0  0  0  0  0  0  0  0  0  0  # atno 27256 bound_to 17058
  250.9670    4.0638   43.3064 LP  0  0  0  0  0  0  0  0  0  0  0  0  # atno 27257 bound_to 17227
  250.0752    4.8716   44.5523 LP  0  0  0  0  0  0  0  0  0  0  0  0  # atno 27258 bound_to 17227
  255.8691    7.1403   34.1287 LP  0  0  0  0  0  0  0  0  0  0  0  0  # atno 27259 bound_to 18474
  254.3454    7.6815   34.3569 LP  0  0  0  0  0  0  0  0  0  0  0  0  # atno 27260 bound_to 18474
  252.2293    6.8772   43.3447 LP  0  0  0  0  0  0  0  0  0  0  0  0  # atno 27261 bound_to 17285
  250.5763    1.7285   44.8853 LP  0  0  0  0  0  0  0  0  0  0  0  0  # atno 27262 bound_to 18212
  253.6411   -1.6174   39.4307 LP  0  0  0  0  0  0  0  0  0  0  0  0  # atno 27263 bound_to 18282
  252.0322   -1.8561   39.5764 LP  0  0  0  0  0  0  0  0  0  0  0  0  # atno 27264 bound_to 18282
  248.4823   -3.6188   36.2432 LP  0  0  0  0  0  0  0  0  0  0  0  0  # atno 27265 bound_to 10098
  246.9811   -4.2614   36.2456 LP  0  0  0  0  0  0  0  0  0  0  0  0  # atno 27266 bound_to 10098
  249.0339   -1.7231   41.7597 LP  0  0  0  0  0  0  0  0  0  0  0  0  # atno 27267 bound_to 10137
  250.6406   -1.4814   42.3599 LP  0  0  0  0  0  0  0  0  0  0  0  0  # atno 27268 bound_to 10137
  252.3654    8.5945   42.8955 LP  0  0  0  0  0  0  0  0  0  0  0  0  # atno 27269 bound_to 11416
  251.5406   10.1159   42.9663 LP  0  0  0  0  0  0  0  0  0  0  0  0  # atno 27270 bound_to 11416
  256.9412    9.4575   36.7803 LP  0  0  0  0  0  0  0  0  0  0  0  0  # atno 27271 bound_to 16966
  255.8628    8.4967   36.0184 LP  0  0  0  0  0  0  0  0  0  0  0  0  # atno 27272 bound_to 16966
  254.7740   10.5591   42.1236 LP  0  0  0  0  0  0  0  0  0  0  0  0  # atno 27273 bound_to 11466
  255.1642    6.1540   42.8149 LP  0  0  0  0  0  0  0  0  0  0  0  0  # atno 27274 bound_to 11531
  257.8636    8.7047   38.1671 LP  0  0  0  0  0  0  0  0  0  0  0  0  # atno 27275 bound_to 11610
  258.0523    6.9876   38.0397 LP  0  0  0  0  0  0  0  0  0  0  0  0  # atno 27276 bound_to 11610
  258.1720    5.3428   41.1275 LP  0  0  0  0  0  0  0  0  0  0  0  0  # atno 27279 bound_to 11607
  254.9728   13.4306   42.2168 LP  0  0  0  0  0  0  0  0  0  0  0  0  # atno 27282 bound_to 11418
  253.8161   12.9281   41.1794 LP  0  0  0  0  0  0  0  0  0  0  0  0  # atno 27283 bound_to 11418
  251.7110   11.8394   29.9145 LP  0  0  0  0  0  0  0  0  0  0  0  0  # atno 27284 bound_to 18693
  253.3875   11.5219   29.6173 LP  0  0  0  0  0  0  0  0  0  0  0  0  # atno 27285 bound_to 18693

> <Gold.Score>
     Fitness  S(hb_ext) S(vdw_ext)  S(hb_int)    S(int)      intcor
     34.72       6.60      20.61       0.00      -0.22      -0.77

> <Gold.Goldscore.Fitness>
34.7162

> <Gold.Goldscore.Internal.Vdw>
-0.4815

> <Gold.Goldscore.Internal.Torsion>
-0.5100

> <Gold.Goldscore.External.Vdw>
20.6071

> <Gold.Goldscore.Internal.HBond>
0.0000

> <Gold.Goldscore.External.HBond>
6.6036

> <Gold.Goldscore.Internal.Correction>
-0.7693

> <Gold.Goldscore.Hbonds>
donor molecule, donor type, donor heavy atom, donor atom, acceptor molecule, acceptor atom, score
      P1  H 19353 19403       L1    11  0.10
      L1  H     8    22       P1 27129  1.00

> <Gold.Goldscore.Internal.Vdw.Weighted>
-0.4815

> <Gold.Goldscore.Internal.Torsion.Weighted>
-0.5100

> <Gold.Goldscore.External.Vdw.Weighted>
28.3348

> <Gold.Goldscore.Internal.HBond.Weighted>
0.0000

> <Gold.Goldscore.External.HBond.Weighted>
6.6036

> <Gold.Goldscore.Internal.Correction.Weighted>
-0.7693

> <Gold.Rescore>
     Score     S(PLP)   S(hbond)     S(cho)   S(metal)  DE(clash)   DE(tors)     intcor
     21.93     -17.39       1.59       0.00       0.00       0.00       0.12       ----

> <Gold.PLP.Fitness>
21.9288

> <Gold.PLP.PLP>
-17.3900

> <Gold.PLP.part.hbond>
-3.3907

> <Gold.PLP.part.metal>
0.0000

> <Gold.PLP.part.buried>
-5.1910

> <Gold.PLP.part.nonpolar>
-10.2755

> <Gold.PLP.part.repulsive>
0.7653

> <Gold.PLP.ligand.clash>
0.0000

> <Gold.PLP.ligand.torsion>
0.1186

> <Gold.PLP.Chemscore.Hbond>
1.5920

> <Gold.PLP.Chemscore.CHOScore>
0.0000

> <Gold.PLP.Chemscore.Metal>
0.0000

> <Gold.Chemscore.Hbonds>
donor molecule, donor type, donor heavy atom, donor atom, acceptor molecule, acceptor atom, score
      L1  H     8    22       P1 27129  1.00
      P1  H 19353 19403       L1    11  0.89

> <Gold.PLP.Chemscore.Internal.Correction>
   9.000000E+99

