#       Name:                CT1002167954
#       Creating user name   hitesit
#       Creation time:       Sun Apr 16 23:04:50 2023


#       File generated by GOLD software.
#

@<TRIPOS>MOLECULE
CT1002167954|ligand_prepared|mol2|1|dock7
    29    30     1
SMALL
NO_CHARGES


@<TRIPOS>ATOM
      1 C1         249.9563  12.6250  36.2018 C.3            1 RES1               0.0000
      2 C2         249.6849  11.1234  36.4256 C.ar           1 RES1               0.0000
      3 C3         251.0834  12.7085  35.1766 C.2            1 RES1               0.0000
      4 C4         248.6393  13.2307  35.7292 C.2            1 RES1               0.0000
      5 C5         250.3971  13.3774  37.4789 C.3            1 RES1               0.0000
      6 C6         250.0455  10.1867  35.4616 C.ar           1 RES1               0.0000
      7 C7         249.0782  10.6601  37.5901 C.ar           1 RES1               0.0000
      8 N8         250.7577  13.0938  33.9096 N.am           1 RES1               0.0000
      9 O9         252.2338  12.4029  35.4654 O.2            1 RES1               0.0000
     10 N10        248.5820  13.7267  34.4530 N.am           1 RES1               0.0000
     11 O11        247.6458  13.2680  36.4447 O.2            1 RES1               0.0000
     12 C12        250.9461  14.7700  37.2114 C.3            1 RES1               0.0000
     13 C13        249.8109   8.8356  35.6559 C.ar           1 RES1               0.0000
     14 C14        248.8442   9.3085  37.7822 C.ar           1 RES1               0.0000
     15 C15        249.5724  13.6578  33.5114 C.2            1 RES1               0.0000
     16 C16        249.2106   8.3955  36.8163 C.ar           1 RES1               0.0000
     17 O17        249.4267  14.0777  32.3671 O.2            1 RES1               0.0000
     18 H18        249.5368  13.4608  38.1543 H              1 RES1               0.0000
     19 H19        251.1677  12.7861  37.9889 H              1 RES1               0.0000
     20 H20        250.5167  10.5144  34.5410 H              1 RES1               0.0000
     21 H21        248.7805  11.3603  38.3632 H              1 RES1               0.0000
     22 H22        251.4605  12.9490  33.1916 H              1 RES1               0.0000
     23 H23        247.7213  14.1902  34.1797 H              1 RES1               0.0000
     24 H24        251.2405  15.2536  38.1405 H              1 RES1               0.0000
     25 H25        251.8184  14.7227  36.5628 H              1 RES1               0.0000
     26 H26        250.1972  15.3934  36.7273 H              1 RES1               0.0000
     27 H27        250.0999   8.1212  34.8920 H              1 RES1               0.0000
     28 H28        248.3710   8.9667  38.6968 H              1 RES1               0.0000
     29 H29        249.0273   7.3370  36.9684 H              1 RES1               0.0000
@<TRIPOS>BOND
    1    1    2 1     
    2    1    3 1     
    3    1    4 1     
    4    1    5 1     
    5    2    6 ar    
    6    2    7 ar    
    7    3    8 1     
    8    3    9 2     
    9    4   10 1     
   10    4   11 2     
   11    5   12 1     
   12    5   18 1     
   13    5   19 1     
   14    6   13 ar    
   15    6   20 1     
   16    7   14 ar    
   17    7   21 1     
   18    8   15 1     
   19    8   22 1     
   20   10   15 1     
   21   10   23 1     
   22   12   24 1     
   23   12   25 1     
   24   12   26 1     
   25   13   16 ar    
   26   13   27 1     
   27   14   16 ar    
   28   14   28 1     
   29   15   17 2     
   30   16   29 1     
@<TRIPOS>SUBSTRUCTURE
      1 RES1           1
@<TRIPOS>SET
DONOR_HYDROGENS      STATIC     ATOMS    <user>   **** ""
2 22 23
ATOM$RED        STATIC     ATOMS    COLORGROUP SYSTEM
2 22 23
@<TRIPOS>COMMENT
> <Gold.Version>
2022.3.0

> <Gold.Id.Protein>
unknown|4v3u_clean|pdb

> <Gold.Protein.RotatedTorsions>
[  576  535  534  533 ] final   27.49 input   59.97 | X-H torsion
[ 2566 2531 2532 2533 ] final   -1.75 input  112.83 | X-H torsion
[ 2636 2605 2606 2607 ] final   -9.14 input   41.41 | X-H torsion
[ 26091 26055 26054 26052 ] final  172.71 input   60.03 | X-H torsion
[ 27195 27136 27135 27131 ] final   67.19 input   60.01 | X-H torsion
[  728  681  682  683 ] final   54.29 input  102.19 | X-H torsion
[ 7435 7417 7418 7419 ] final  -12.45 input   81.33 | X-H torsion
[ 7494 7460 7461 7462 ] final  -93.34 input  103.22 | X-H torsion
[ 7528 7515 7516 7517 ] final  -95.72 input   88.53 | X-H torsion
[ 17198 17178 17179 17180 ] final  -53.09 input   47.40 | X-H torsion
[ 17258 17224 17225 17226 ] final    9.15 input  102.98 | X-H torsion
[ 18298 18277 18278 18279 ] final   16.22 input   30.52 | X-H torsion
[ 18328 18315 18316 18317 ] final   -3.55 input   53.77 | X-H torsion
[ 18417 18373 18374 18375 ] final  161.79 input   42.60 | X-H torsion
[ 18502 18463 18464 18465 ] final  147.46 input  104.04 | X-H torsion
[ 18570 18535 18536 18537 ] final -101.36 input   89.36 | X-H torsion
[ 18510 18474 18473 18471 ] final   19.02 input   60.01 | X-H torsion
[ 17306 17285 17286 17287 ] final  120.55 input   49.80 | X-H torsion
[ 18250 18212 18213 18214 ] final  -92.76 input   46.53 | X-H torsion
[ 18302 18282 18281 18278 ] final  -47.38 input   59.98 | X-H torsion
[ 10118 10098 10097 10094 ] final -176.72 input   59.98 | X-H torsion
[ 17002 16966 16965 16963 ] final  -40.03 input   59.99 | X-H torsion
[ 11499 11466 11467 11468 ] final -163.42 input   46.07 | X-H torsion
[ 11572 11531 11532 11533 ] final  150.54 input  118.20 | X-H torsion
[ 11648 11607 11608 11609 ] final  -54.35 input   50.96 | X-H torsion
[ 11438 11418 11417 11414 ] final  -50.84 input   60.01 | X-H torsion
[ 27199 27138 27137 27135 ] final  -87.42 input   60.02 | X-H torsion
[ 19310 19290 19289 19286 ] final   18.05 input   60.00 | X-H torsion
[ 10154 10134 10135 10136 ] final -107.73 input   25.69 | X-H torsion
[ 17361 17335 17336 17337 ] final  116.54 input   65.66 | X-H torsion
[ 27200  684  683  682 ] final  102.75 input    0.00 | X-H torsion
[ 27203 2534 2533 2532 ] final   43.57 input    0.00 | X-H torsion
[ 27226 7339 7338 7337 ] final  -96.76 input    0.00 | X-H torsion
[ 27232 17131 17130 17129 ] final  147.35 input    0.00 | X-H torsion
[ 27236 18215 18214 18213 ] final -129.67 input    0.00 | X-H torsion
[ 27239 18280 18279 18278 ] final   19.87 input    0.00 | X-H torsion
[ 27242 18318 18317 18316 ] final -110.06 input    0.00 | X-H torsion
[ 27245 18376 18375 18374 ] final  161.42 input   -0.00 | X-H torsion
[ 27253 17181 17180 17179 ] final  132.16 input    0.00 | X-H torsion
[ 27255 17058 17057 17056 ] final -154.11 input    0.00 | X-H torsion
[ 27257 17227 17226 17225 ] final  111.09 input   -0.00 | X-H torsion
[ 27267 10137 10136 10135 ] final   -6.59 input    0.00 | X-H torsion
[ 27269 11416 11415 11414 ] final   55.63 input    0.00 | X-H torsion
[ 27275 11610 11609 11608 ] final  155.66 input    0.00 | X-H torsion
[ 27284 18693 18692 18691 ] final   94.40 input    0.00 | X-H torsion

> <Gold.Protein.ActiveResidues>
 LYS309  TRP311  GLU314  MET341  HIS342  TRP414  ALA417  ARG419  CYS420  VAL421 
 GLY422  ARG423  SER462  ALA463  SER482  GLN483  LEU484  ILE485  ARG486  ALA502 
 TRP566  TYR567  LEU569  PRO570  ALA571  VAL572  SER573  ASN574  MET575  PHE589 
 SER590  GLY591  TRP592  TYR593  MET594  GLU597  ILE598  ARG601  ASP602  ASP605 
 SER607  ARG608  TRP683  HIS697  GLU699  TYR711  HEM750  H4B760 

> <Gold.Protein.RotatedAtoms>
  246.3024   24.0055   41.3017 H   0  0  0  0  0  0  0  0  0  0  0  0  # atno 576  bound_to 535 
  247.7490   24.8106   41.2143 H   0  0  0  0  0  0  0  0  0  0  0  0  # atno 577  bound_to 535 
  246.5208   25.4123   42.1501 H   0  0  0  0  0  0  0  0  0  0  0  0  # atno 578  bound_to 535 
  245.3907   24.8017   33.5646 H   0  0  0  0  0  0  0  0  0  0  0  0  # atno 728  bound_to 681 
  238.5780   19.9076   38.8373 H   0  0  0  0  0  0  0  0  0  0  0  0  # atno 2566 bound_to 2531
  238.7898   19.4415   40.4316 H   0  0  0  0  0  0  0  0  0  0  0  0  # atno 2636 bound_to 2605
  239.4296    6.1184   34.8257 H   0  0  0  0  0  0  0  0  0  0  0  0  # atno 7435 bound_to 7417
  240.7385    4.3827   33.2517 H   0  0  0  0  0  0  0  0  0  0  0  0  # atno 7494 bound_to 7460
  241.7697    2.0972   31.4685 H   0  0  0  0  0  0  0  0  0  0  0  0  # atno 7528 bound_to 7515
  246.9796   -4.3885   36.2155 H   0  0  0  0  0  0  0  0  0  0  0  0  # atno 10118 bound_to 10098
  249.1998   -4.5874   39.9605 H   0  0  0  0  0  0  0  0  0  0  0  0  # atno 10154 bound_to 10134
  255.2076   12.6014   42.3971 H   0  0  0  0  0  0  0  0  0  0  0  0  # atno 11438 bound_to 11418
  253.7003   10.1855   42.6087 H   0  0  0  0  0  0  0  0  0  0  0  0  # atno 11499 bound_to 11466
  255.1635    6.0049   42.6070 H   0  0  0  0  0  0  0  0  0  0  0  0  # atno 11572 bound_to 11531
  257.9765    6.9959   41.5703 H   0  0  0  0  0  0  0  0  0  0  0  0  # atno 11648 bound_to 11607
  255.8873    8.7007   35.4803 H   0  0  0  0  0  0  0  0  0  0  0  0  # atno 17002 bound_to 16966
  253.0249    4.7707   38.0094 H   0  0  0  0  0  0  0  0  0  0  0  0  # atno 17198 bound_to 17178
  251.6750    4.3546   41.4181 H   0  0  0  0  0  0  0  0  0  0  0  0  # atno 17258 bound_to 17224
  252.2669    7.0814   43.3714 H   0  0  0  0  0  0  0  0  0  0  0  0  # atno 17306 bound_to 17285
  250.9678    8.8647   45.0605 H   0  0  0  0  0  0  0  0  0  0  0  0  # atno 17361 bound_to 17335
  251.0577    1.8304   44.5569 H   0  0  0  0  0  0  0  0  0  0  0  0  # atno 18250 bound_to 18212
  249.8724   -0.5813   41.0330 H   0  0  0  0  0  0  0  0  0  0  0  0  # atno 18298 bound_to 18277
  252.2247   -1.6030   40.6465 H   0  0  0  0  0  0  0  0  0  0  0  0  # atno 18302 bound_to 18282
  251.2628    0.3249   37.2218 H   0  0  0  0  0  0  0  0  0  0  0  0  # atno 18328 bound_to 18315
  250.4829   -1.4300   34.2722 H   0  0  0  0  0  0  0  0  0  0  0  0  # atno 18417 bound_to 18373
  252.7947    1.4970   31.7830 H   0  0  0  0  0  0  0  0  0  0  0  0  # atno 18502 bound_to 18463
  254.2814    8.0049   34.0177 H   0  0  0  0  0  0  0  0  0  0  0  0  # atno 18510 bound_to 18474
  250.5016    2.8773   29.2833 H   0  0  0  0  0  0  0  0  0  0  0  0  # atno 18570 bound_to 18535
  253.2436   21.2944   33.0029 H   0  0  0  0  0  0  0  0  0  0  0  0  # atno 19310 bound_to 19290
  241.6350   13.1127   39.7703 H   0  0  0  0  0  0  0  0  0  0  0  0  # atno 26091 bound_to 26055
  242.9004   19.5385   31.1541 H   0  0  0  0  0  0  0  0  0  0  0  0  # atno 27195 bound_to 27136
  239.7389   18.1906   33.4058 H   0  0  0  0  0  0  0  0  0  0  0  0  # atno 27199 bound_to 27138
  249.4295   22.8945   34.7541 LP  0  0  0  0  0  0  0  0  0  0  0  0  # atno 27200 bound_to 684 
  249.4143   24.2299   35.8570 LP  0  0  0  0  0  0  0  0  0  0  0  0  # atno 27201 bound_to 684 
  239.4498   20.0289   37.3277 LP  0  0  0  0  0  0  0  0  0  0  0  0  # atno 27202 bound_to 2531
  240.6878   16.2438   39.9887 LP  0  0  0  0  0  0  0  0  0  0  0  0  # atno 27203 bound_to 2534
  239.1912   16.3656   40.8522 LP  0  0  0  0  0  0  0  0  0  0  0  0  # atno 27204 bound_to 2534
  240.3404   18.6353   40.4653 LP  0  0  0  0  0  0  0  0  0  0  0  0  # atno 27205 bound_to 2605
  242.8087   11.9870   39.8122 LP  0  0  0  0  0  0  0  0  0  0  0  0  # atno 27209 bound_to 26055
  243.1869   13.5566   39.5674 LP  0  0  0  0  0  0  0  0  0  0  0  0  # atno 27210 bound_to 26055
  244.1770   19.1487   32.0854 LP  0  0  0  0  0  0  0  0  0  0  0  0  # atno 27213 bound_to 27136
  243.4102   20.5742   32.3015 LP  0  0  0  0  0  0  0  0  0  0  0  0  # atno 27214 bound_to 27136
  245.0331   25.4513   35.1423 LP  0  0  0  0  0  0  0  0  0  0  0  0  # atno 27215 bound_to 681 
  241.1219    7.5981   33.3474 LP  0  0  0  0  0  0  0  0  0  0  0  0  # atno 27226 bound_to 7339
  242.0487    8.0114   34.7510 LP  0  0  0  0  0  0  0  0  0  0  0  0  # atno 27227 bound_to 7339
  240.3801    6.3079   36.2770 LP  0  0  0  0  0  0  0  0  0  0  0  0  # atno 27228 bound_to 7417
  242.3253    4.7722   32.6239 LP  0  0  0  0  0  0  0  0  0  0  0  0  # atno 27229 bound_to 7460
  242.3854    2.4272   33.0720 LP  0  0  0  0  0  0  0  0  0  0  0  0  # atno 27230 bound_to 7515
  252.2483    2.1142   38.4372 LP  0  0  0  0  0  0  0  0  0  0  0  0  # atno 27232 bound_to 17131
  251.7128    2.5324   36.8440 LP  0  0  0  0  0  0  0  0  0  0  0  0  # atno 27233 bound_to 17131
  254.5143    3.9073   38.3053 LP  0  0  0  0  0  0  0  0  0  0  0  0  # atno 27234 bound_to 17178
  251.4680    5.3191   39.9725 LP  0  0  0  0  0  0  0  0  0  0  0  0  # atno 27235 bound_to 17224
  250.5223    2.8046   40.5187 LP  0  0  0  0  0  0  0  0  0  0  0  0  # atno 27236 bound_to 18215
  251.4225    2.8680   41.9971 LP  0  0  0  0  0  0  0  0  0  0  0  0  # atno 27237 bound_to 18215
  250.6073    0.9218   41.5348 LP  0  0  0  0  0  0  0  0  0  0  0  0  # atno 27238 bound_to 18277
  249.8165   -1.8762   39.8245 LP  0  0  0  0  0  0  0  0  0  0  0  0  # atno 27239 bound_to 18280
  249.8511   -2.3932   38.1718 LP  0  0  0  0  0  0  0  0  0  0  0  0  # atno 27240 bound_to 18280
  249.7675    0.0480   38.0886 LP  0  0  0  0  0  0  0  0  0  0  0  0  # atno 27241 bound_to 18315
  252.7806   -0.4275   35.2877 LP  0  0  0  0  0  0  0  0  0  0  0  0  # atno 27242 bound_to 18318
  252.3331   -2.0874   35.4984 LP  0  0  0  0  0  0  0  0  0  0  0  0  # atno 27243 bound_to 18318
  249.8056    0.1733   34.1545 LP  0  0  0  0  0  0  0  0  0  0  0  0  # atno 27244 bound_to 18373
  249.5938    2.3946   31.8889 LP  0  0  0  0  0  0  0  0  0  0  0  0  # atno 27245 bound_to 18376
  249.1125    0.8520   32.5122 LP  0  0  0  0  0  0  0  0  0  0  0  0  # atno 27246 bound_to 18376
  251.2113    0.9166   31.3084 LP  0  0  0  0  0  0  0  0  0  0  0  0  # atno 27247 bound_to 18463
  249.7901    4.3471   29.9067 LP  0  0  0  0  0  0  0  0  0  0  0  0  # atno 27248 bound_to 18535
  253.4128    6.8326   41.0855 LP  0  0  0  0  0  0  0  0  0  0  0  0  # atno 27253 bound_to 17181
  254.3282    5.4945   41.6949 LP  0  0  0  0  0  0  0  0  0  0  0  0  # atno 27254 bound_to 17181
  256.0528    4.1921   37.5310 LP  0  0  0  0  0  0  0  0  0  0  0  0  # atno 27255 bound_to 17058
  257.6043    3.7426   36.9057 LP  0  0  0  0  0  0  0  0  0  0  0  0  # atno 27256 bound_to 17058
  251.3518    4.2655   44.0678 LP  0  0  0  0  0  0  0  0  0  0  0  0  # atno 27257 bound_to 17227
  249.6905    4.6699   43.7909 LP  0  0  0  0  0  0  0  0  0  0  0  0  # atno 27258 bound_to 17227
  255.6716    8.0643   33.1739 LP  0  0  0  0  0  0  0  0  0  0  0  0  # atno 27259 bound_to 18474
  255.5230    7.0404   34.4374 LP  0  0  0  0  0  0  0  0  0  0  0  0  # atno 27260 bound_to 18474
  250.5671    7.0082   43.7613 LP  0  0  0  0  0  0  0  0  0  0  0  0  # atno 27261 bound_to 17285
  249.7308    2.8584   44.0743 LP  0  0  0  0  0  0  0  0  0  0  0  0  # atno 27262 bound_to 18212
  253.7676   -1.4489   40.1537 LP  0  0  0  0  0  0  0  0  0  0  0  0  # atno 27263 bound_to 18282
  252.6033   -1.8609   39.0854 LP  0  0  0  0  0  0  0  0  0  0  0  0  # atno 27264 bound_to 18282
  248.3836   -5.1326   35.8646 LP  0  0  0  0  0  0  0  0  0  0  0  0  # atno 27265 bound_to 10098
  248.3740   -3.5515   36.2726 LP  0  0  0  0  0  0  0  0  0  0  0  0  # atno 27266 bound_to 10098
  250.1527   -1.9173   41.3174 LP  0  0  0  0  0  0  0  0  0  0  0  0  # atno 27267 bound_to 10137
  249.5217   -1.2872   42.8022 LP  0  0  0  0  0  0  0  0  0  0  0  0  # atno 27268 bound_to 10137
  251.6130   10.0825   42.6061 LP  0  0  0  0  0  0  0  0  0  0  0  0  # atno 27269 bound_to 11416
  252.2930    8.6279   43.2557 LP  0  0  0  0  0  0  0  0  0  0  0  0  # atno 27270 bound_to 11416
  256.9823    9.8988   35.5951 LP  0  0  0  0  0  0  0  0  0  0  0  0  # atno 27271 bound_to 16966
  256.5903    9.0180   36.9130 LP  0  0  0  0  0  0  0  0  0  0  0  0  # atno 27272 bound_to 16966
  255.3799   10.1642   43.1039 LP  0  0  0  0  0  0  0  0  0  0  0  0  # atno 27273 bound_to 11466
  256.1771    7.3388   42.1112 LP  0  0  0  0  0  0  0  0  0  0  0  0  # atno 27274 bound_to 11531
  257.8585    8.7037   38.1724 LP  0  0  0  0  0  0  0  0  0  0  0  0  # atno 27275 bound_to 11610
  258.0573    6.9886   38.0344 LP  0  0  0  0  0  0  0  0  0  0  0  0  # atno 27276 bound_to 11610
  257.9952    5.3821   40.9008 LP  0  0  0  0  0  0  0  0  0  0  0  0  # atno 27279 bound_to 11607
  254.2303   13.6045   41.5686 LP  0  0  0  0  0  0  0  0  0  0  0  0  # atno 27282 bound_to 11418
  254.0894   11.9878   41.3866 LP  0  0  0  0  0  0  0  0  0  0  0  0  # atno 27283 bound_to 11418
  252.8101   11.2631   30.4783 LP  0  0  0  0  0  0  0  0  0  0  0  0  # atno 27284 bound_to 18693
  252.2884   12.0982   29.0534 LP  0  0  0  0  0  0  0  0  0  0  0  0  # atno 27285 bound_to 18693

> <Gold.Score>
     Fitness  S(hb_ext) S(vdw_ext)  S(hb_int)    S(int)      intcor
     29.50       7.00      17.13       0.00      -1.06      -0.77

> <Gold.Goldscore.Fitness>
29.4961

> <Gold.Goldscore.Internal.Vdw>
-1.2226

> <Gold.Goldscore.Internal.Torsion>
-0.6079

> <Gold.Goldscore.External.Vdw>
17.1322

> <Gold.Goldscore.Internal.HBond>
0.0000

> <Gold.Goldscore.External.HBond>
7.0005

> <Gold.Goldscore.Internal.Correction>
-0.7693

> <Gold.Goldscore.Hbonds>
donor molecule, donor type, donor heavy atom, donor atom, acceptor molecule, acceptor atom, score
      L1  H     8    22       P1 19017  0.17
      L1  H    10    23       P1 27129  1.00

> <Gold.Goldscore.Internal.Vdw.Weighted>
-1.2226

> <Gold.Goldscore.Internal.Torsion.Weighted>
-0.6079

> <Gold.Goldscore.External.Vdw.Weighted>
23.5568

> <Gold.Goldscore.Internal.HBond.Weighted>
0.0000

> <Gold.Goldscore.External.HBond.Weighted>
7.0005

> <Gold.Goldscore.Internal.Correction.Weighted>
-0.7693

> <Gold.Rescore>
     Score     S(PLP)   S(hbond)     S(cho)   S(metal)  DE(clash)   DE(tors)     intcor
     21.08     -18.45       1.58       0.00       0.00       0.00       1.06       ----

> <Gold.PLP.Fitness>
21.0828

> <Gold.PLP.PLP>
-18.4544

> <Gold.PLP.part.hbond>
-2.9683

> <Gold.PLP.part.metal>
0.0000

> <Gold.PLP.part.buried>
-5.2654

> <Gold.PLP.part.nonpolar>
-15.0302

> <Gold.PLP.part.repulsive>
3.6834

> <Gold.PLP.ligand.clash>
0.0000

> <Gold.PLP.ligand.torsion>
1.0607

> <Gold.PLP.Chemscore.Hbond>
1.5833

> <Gold.PLP.Chemscore.CHOScore>
0.0000

> <Gold.PLP.Chemscore.Metal>
0.0000

> <Gold.Chemscore.Hbonds>
donor molecule, donor type, donor heavy atom, donor atom, acceptor molecule, acceptor atom, score
      L1  H    10    23       P1 27129  0.44

> <Gold.PLP.Chemscore.Internal.Correction>
   9.000000E+99

