#       Name:                CT1002167954
#       Creating user name   hitesit
#       Creation time:       Sun Apr 16 23:04:47 2023


#       File generated by GOLD software.
#

@<TRIPOS>MOLECULE
CT1002167954|ligand_prepared|mol2|1|dock3
    29    30     1
SMALL
NO_CHARGES


@<TRIPOS>ATOM
      1 C1         250.7060  10.8326  34.3861 C.3            1 RES1               0.0000
      2 C2         250.0012  10.3695  35.6774 C.ar           1 RES1               0.0000
      3 C3         251.2863  12.2117  34.6856 C.2            1 RES1               0.0000
      4 C4         251.7544   9.7721  34.0685 C.2            1 RES1               0.0000
      5 C5         249.7619  10.9511  33.1671 C.3            1 RES1               0.0000
      6 C6         249.2589   9.1925  35.6965 C.ar           1 RES1               0.0000
      7 C7         250.0863  11.1059  36.8560 C.ar           1 RES1               0.0000
      8 N8         252.6360  12.3056  34.8568 N.am           1 RES1               0.0000
      9 O9         250.5663  13.1948  34.8089 O.2            1 RES1               0.0000
     10 N10        253.0744  10.1345  34.1330 N.am           1 RES1               0.0000
     11 O11        251.4499   8.6215  33.7792 O.2            1 RES1               0.0000
     12 C12        250.4180  11.5661  31.9409 C.3            1 RES1               0.0000
     13 C13        248.6269   8.7656  36.8527 C.ar           1 RES1               0.0000
     14 C14        249.4533  10.6773  38.0110 C.ar           1 RES1               0.0000
     15 C15        253.5635  11.3450  34.5427 C.2            1 RES1               0.0000
     16 C16        248.7240   9.5074  38.0107 C.ar           1 RES1               0.0000
     17 O17        254.7659  11.5780  34.6264 O.2            1 RES1               0.0000
     18 H18        249.3942   9.9510  32.9066 H              1 RES1               0.0000
     19 H19        248.8965  11.5636  33.4489 H              1 RES1               0.0000
     20 H20        249.1691   8.5969  34.7942 H              1 RES1               0.0000
     21 H21        250.6538  12.0301  36.8794 H              1 RES1               0.0000
     22 H22        252.9884  13.1701  35.2553 H              1 RES1               0.0000
     23 H23        253.7555   9.4374  33.8492 H              1 RES1               0.0000
     24 H24        249.7123  11.6261  31.1150 H              1 RES1               0.0000
     25 H25        250.7731  12.5716  32.1568 H              1 RES1               0.0000
     26 H26        251.2679  10.9686  31.6177 H              1 RES1               0.0000
     27 H27        248.0529   7.8449  36.8468 H              1 RES1               0.0000
     28 H28        249.5320  11.2646  38.9200 H              1 RES1               0.0000
     29 H29        248.2291   9.1725  38.9163 H              1 RES1               0.0000
@<TRIPOS>BOND
    1    1    2 1     
    2    1    3 1     
    3    1    4 1     
    4    1    5 1     
    5    2    6 ar    
    6    2    7 ar    
    7    3    8 1     
    8    3    9 2     
    9    4   10 1     
   10    4   11 2     
   11    5   12 1     
   12    5   18 1     
   13    5   19 1     
   14    6   13 ar    
   15    6   20 1     
   16    7   14 ar    
   17    7   21 1     
   18    8   15 1     
   19    8   22 1     
   20   10   15 1     
   21   10   23 1     
   22   12   24 1     
   23   12   25 1     
   24   12   26 1     
   25   13   16 ar    
   26   13   27 1     
   27   14   16 ar    
   28   14   28 1     
   29   15   17 2     
   30   16   29 1     
@<TRIPOS>SUBSTRUCTURE
      1 RES1           1
@<TRIPOS>SET
DONOR_HYDROGENS      STATIC     ATOMS    <user>   **** ""
2 22 23
ATOM$RED        STATIC     ATOMS    COLORGROUP SYSTEM
2 22 23
@<TRIPOS>COMMENT
> <Gold.Version>
2022.3.0

> <Gold.Id.Protein>
unknown|4v3u_clean|pdb

> <Gold.Protein.RotatedTorsions>
[  576  535  534  533 ] final  171.76 input   59.97 | X-H torsion
[ 2566 2531 2532 2533 ] final   23.17 input  112.83 | X-H torsion
[ 2636 2605 2606 2607 ] final    9.75 input   41.41 | X-H torsion
[ 26091 26055 26054 26052 ] final   43.12 input   60.03 | X-H torsion
[ 27195 27136 27135 27131 ] final  -83.42 input   60.01 | X-H torsion
[  728  681  682  683 ] final -143.84 input  102.19 | X-H torsion
[ 7435 7417 7418 7419 ] final -146.13 input   81.33 | X-H torsion
[ 7494 7460 7461 7462 ] final -155.27 input  103.22 | X-H torsion
[ 7528 7515 7516 7517 ] final  -74.03 input   88.53 | X-H torsion
[ 17198 17178 17179 17180 ] final   81.20 input   47.40 | X-H torsion
[ 17258 17224 17225 17226 ] final  174.52 input  102.98 | X-H torsion
[ 18298 18277 18278 18279 ] final  125.87 input   30.52 | X-H torsion
[ 18328 18315 18316 18317 ] final  -19.78 input   53.77 | X-H torsion
[ 18417 18373 18374 18375 ] final  -29.70 input   42.60 | X-H torsion
[ 18502 18463 18464 18465 ] final  -87.79 input  104.04 | X-H torsion
[ 18570 18535 18536 18537 ] final  158.12 input   89.36 | X-H torsion
[ 18510 18474 18473 18471 ] final -109.73 input   60.01 | X-H torsion
[ 17306 17285 17286 17287 ] final   91.74 input   49.80 | X-H torsion
[ 18250 18212 18213 18214 ] final  122.23 input   46.53 | X-H torsion
[ 18302 18282 18281 18278 ] final  -78.87 input   59.98 | X-H torsion
[ 10118 10098 10097 10094 ] final  119.54 input   59.98 | X-H torsion
[ 17002 16966 16965 16963 ] final  129.64 input   59.99 | X-H torsion
[ 11499 11466 11467 11468 ] final  147.94 input   46.07 | X-H torsion
[ 11572 11531 11532 11533 ] final   57.91 input  118.20 | X-H torsion
[ 11648 11607 11608 11609 ] final -101.28 input   50.96 | X-H torsion
[ 11438 11418 11417 11414 ] final   66.85 input   60.01 | X-H torsion
[ 27199 27138 27137 27135 ] final  -61.77 input   60.02 | X-H torsion
[ 19310 19290 19289 19286 ] final   -8.19 input   60.00 | X-H torsion
[ 10154 10134 10135 10136 ] final -169.19 input   25.69 | X-H torsion
[ 17361 17335 17336 17337 ] final   32.08 input   65.66 | X-H torsion
[ 27200  684  683  682 ] final    3.72 input    0.00 | X-H torsion
[ 27203 2534 2533 2532 ] final  -25.11 input    0.00 | X-H torsion
[ 27226 7339 7338 7337 ] final   46.19 input    0.00 | X-H torsion
[ 27232 17131 17130 17129 ] final  -23.70 input    0.00 | X-H torsion
[ 27236 18215 18214 18213 ] final   31.57 input    0.00 | X-H torsion
[ 27239 18280 18279 18278 ] final  -21.16 input    0.00 | X-H torsion
[ 27242 18318 18317 18316 ] final  112.84 input    0.00 | X-H torsion
[ 27245 18376 18375 18374 ] final    4.93 input   -0.00 | X-H torsion
[ 27253 17181 17180 17179 ] final  103.72 input    0.00 | X-H torsion
[ 27255 17058 17057 17056 ] final -126.53 input    0.00 | X-H torsion
[ 27257 17227 17226 17225 ] final -150.67 input   -0.00 | X-H torsion
[ 27267 10137 10136 10135 ] final -108.82 input    0.00 | X-H torsion
[ 27269 11416 11415 11414 ] final   33.37 input    0.00 | X-H torsion
[ 27275 11610 11609 11608 ] final  -53.05 input    0.00 | X-H torsion
[ 27284 18693 18692 18691 ] final  163.31 input    0.00 | X-H torsion

> <Gold.Protein.ActiveResidues>
 LYS309  TRP311  GLU314  MET341  HIS342  TRP414  ALA417  ARG419  CYS420  VAL421 
 GLY422  ARG423  SER462  ALA463  SER482  GLN483  LEU484  ILE485  ARG486  ALA502 
 TRP566  TYR567  LEU569  PRO570  ALA571  VAL572  SER573  ASN574  MET575  PHE589 
 SER590  GLY591  TRP592  TYR593  MET594  GLU597  ILE598  ARG601  ASP602  ASP605 
 SER607  ARG608  TRP683  HIS697  GLU699  TYR711  HEM750  H4B760 

> <Gold.Protein.RotatedAtoms>
  247.7224   25.1378   41.4457 H   0  0  0  0  0  0  0  0  0  0  0  0  # atno 576  bound_to 535 
  246.2074   25.1617   42.1183 H   0  0  0  0  0  0  0  0  0  0  0  0  # atno 577  bound_to 535 
  246.6432   23.9281   41.1012 H   0  0  0  0  0  0  0  0  0  0  0  0  # atno 578  bound_to 535 
  244.8507   25.2452   35.1460 H   0  0  0  0  0  0  0  0  0  0  0  0  # atno 728  bound_to 681 
  238.8529   20.1584   38.9210 H   0  0  0  0  0  0  0  0  0  0  0  0  # atno 2566 bound_to 2531
  238.9574   19.6641   40.5128 H   0  0  0  0  0  0  0  0  0  0  0  0  # atno 2636 bound_to 2605
  240.5523    6.7638   35.7933 H   0  0  0  0  0  0  0  0  0  0  0  0  # atno 7435 bound_to 7417
  240.8852    5.1606   32.7919 H   0  0  0  0  0  0  0  0  0  0  0  0  # atno 7494 bound_to 7460
  241.5159    1.9897   31.6566 H   0  0  0  0  0  0  0  0  0  0  0  0  # atno 7528 bound_to 7515
  247.5035   -5.1845   35.9521 H   0  0  0  0  0  0  0  0  0  0  0  0  # atno 10118 bound_to 10098
  250.0122   -4.9468   39.8012 H   0  0  0  0  0  0  0  0  0  0  0  0  # atno 10154 bound_to 10134
  254.1140   11.9706   41.4107 H   0  0  0  0  0  0  0  0  0  0  0  0  # atno 11438 bound_to 11418
  254.1648   10.4679   42.1150 H   0  0  0  0  0  0  0  0  0  0  0  0  # atno 11499 bound_to 11466
  255.8078    6.3334   41.5549 H   0  0  0  0  0  0  0  0  0  0  0  0  # atno 11572 bound_to 11531
  258.3796    6.5475   41.9319 H   0  0  0  0  0  0  0  0  0  0  0  0  # atno 11648 bound_to 11607
  257.0350    9.6081   36.6360 H   0  0  0  0  0  0  0  0  0  0  0  0  # atno 17002 bound_to 16966
  254.5622    4.5565   38.4974 H   0  0  0  0  0  0  0  0  0  0  0  0  # atno 17198 bound_to 17178
  251.2548    5.2474   39.9564 H   0  0  0  0  0  0  0  0  0  0  0  0  # atno 17258 bound_to 17224
  252.1618    7.4930   43.4778 H   0  0  0  0  0  0  0  0  0  0  0  0  # atno 17306 bound_to 17285
  249.9432    8.2759   45.1782 H   0  0  0  0  0  0  0  0  0  0  0  0  # atno 17361 bound_to 17335
  249.5484    2.5671   44.4715 H   0  0  0  0  0  0  0  0  0  0  0  0  # atno 18250 bound_to 18212
  251.0331    0.0168   41.6462 H   0  0  0  0  0  0  0  0  0  0  0  0  # atno 18298 bound_to 18277
  252.6673   -1.4845   40.8657 H   0  0  0  0  0  0  0  0  0  0  0  0  # atno 18302 bound_to 18282
  251.3306    0.1160   37.3436 H   0  0  0  0  0  0  0  0  0  0  0  0  # atno 18328 bound_to 18315
  249.9113    0.2203   34.2861 H   0  0  0  0  0  0  0  0  0  0  0  0  # atno 18417 bound_to 18373
  251.2341    1.3499   31.9963 H   0  0  0  0  0  0  0  0  0  0  0  0  # atno 18502 bound_to 18463
  255.7701    7.9723   33.2227 H   0  0  0  0  0  0  0  0  0  0  0  0  # atno 18510 bound_to 18474
  249.3507    3.3207   29.8577 H   0  0  0  0  0  0  0  0  0  0  0  0  # atno 18570 bound_to 18535
  252.9981   21.3499   32.6606 H   0  0  0  0  0  0  0  0  0  0  0  0  # atno 19310 bound_to 19290
  242.9521   12.0488   39.7936 H   0  0  0  0  0  0  0  0  0  0  0  0  # atno 26091 bound_to 26055
  244.2261   19.5377   32.3892 H   0  0  0  0  0  0  0  0  0  0  0  0  # atno 27195 bound_to 27136
  240.0648   18.0371   33.6129 H   0  0  0  0  0  0  0  0  0  0  0  0  # atno 27199 bound_to 27138
  248.9143   23.2247   35.9207 LP  0  0  0  0  0  0  0  0  0  0  0  0  # atno 27200 bound_to 684 
  249.9295   23.8997   34.6904 LP  0  0  0  0  0  0  0  0  0  0  0  0  # atno 27201 bound_to 684 
  239.1812   19.7840   37.2460 LP  0  0  0  0  0  0  0  0  0  0  0  0  # atno 27202 bound_to 2531
  239.8071   16.1110   39.5868 LP  0  0  0  0  0  0  0  0  0  0  0  0  # atno 27203 bound_to 2534
  240.0719   16.4983   41.2541 LP  0  0  0  0  0  0  0  0  0  0  0  0  # atno 27204 bound_to 2534
  240.1768   18.4180   40.3860 LP  0  0  0  0  0  0  0  0  0  0  0  0  # atno 27205 bound_to 2605
  243.0643   13.6556   39.5653 LP  0  0  0  0  0  0  0  0  0  0  0  0  # atno 27209 bound_to 26055
  241.6043   12.9598   39.7909 LP  0  0  0  0  0  0  0  0  0  0  0  0  # atno 27210 bound_to 26055
  243.0462   20.5744   31.9623 LP  0  0  0  0  0  0  0  0  0  0  0  0  # atno 27213 bound_to 27136
  243.2067   19.1492   31.1814 LP  0  0  0  0  0  0  0  0  0  0  0  0  # atno 27214 bound_to 27136
  245.5684   25.0117   33.5745 LP  0  0  0  0  0  0  0  0  0  0  0  0  # atno 27215 bound_to 681 
  241.7285    8.4396   34.6206 LP  0  0  0  0  0  0  0  0  0  0  0  0  # atno 27226 bound_to 7339
  241.4421    7.1699   33.4779 LP  0  0  0  0  0  0  0  0  0  0  0  0  # atno 27227 bound_to 7339
  239.2741    5.6721   35.3238 LP  0  0  0  0  0  0  0  0  0  0  0  0  # atno 27228 bound_to 7417
  242.1835    4.0198   33.0686 LP  0  0  0  0  0  0  0  0  0  0  0  0  # atno 27229 bound_to 7460
  242.6324    2.5318   32.8890 LP  0  0  0  0  0  0  0  0  0  0  0  0  # atno 27230 bound_to 7515
  251.8020    2.4405   36.8013 LP  0  0  0  0  0  0  0  0  0  0  0  0  # atno 27232 bound_to 17131
  252.1591    2.2061   38.4799 LP  0  0  0  0  0  0  0  0  0  0  0  0  # atno 27233 bound_to 17131
  253.0098    4.1170   37.8277 LP  0  0  0  0  0  0  0  0  0  0  0  0  # atno 27234 bound_to 17178
  251.8749    4.4544   41.3881 LP  0  0  0  0  0  0  0  0  0  0  0  0  # atno 27235 bound_to 17224
  251.1788    2.9784   42.0869 LP  0  0  0  0  0  0  0  0  0  0  0  0  # atno 27236 bound_to 18215
  250.7660    2.6941   40.4289 LP  0  0  0  0  0  0  0  0  0  0  0  0  # atno 27237 bound_to 18215
  249.4704    0.3361   40.9341 LP  0  0  0  0  0  0  0  0  0  0  0  0  # atno 27238 bound_to 18277
  250.3552   -2.1212   39.6894 LP  0  0  0  0  0  0  0  0  0  0  0  0  # atno 27239 bound_to 18280
  249.3124   -2.1482   38.3068 LP  0  0  0  0  0  0  0  0  0  0  0  0  # atno 27240 bound_to 18280
  249.7019    0.2502   37.9707 LP  0  0  0  0  0  0  0  0  0  0  0  0  # atno 27241 bound_to 18315
  252.4836   -1.9629   34.8960 LP  0  0  0  0  0  0  0  0  0  0  0  0  # atno 27242 bound_to 18318
  252.6301   -0.5521   35.8901 LP  0  0  0  0  0  0  0  0  0  0  0  0  # atno 27243 bound_to 18318
  250.3701   -1.4565   34.1407 LP  0  0  0  0  0  0  0  0  0  0  0  0  # atno 27244 bound_to 18373
  249.1980    1.0253   32.8074 LP  0  0  0  0  0  0  0  0  0  0  0  0  # atno 27245 bound_to 18376
  249.5083    2.2213   31.5937 LP  0  0  0  0  0  0  0  0  0  0  0  0  # atno 27246 bound_to 18376
  252.7128    1.0582   31.1032 LP  0  0  0  0  0  0  0  0  0  0  0  0  # atno 27247 bound_to 18463
  250.9130    3.9145   29.3463 LP  0  0  0  0  0  0  0  0  0  0  0  0  # atno 27248 bound_to 18535
  253.6760    6.7322   40.7666 LP  0  0  0  0  0  0  0  0  0  0  0  0  # atno 27253 bound_to 17181
  254.0649    5.5949   42.0137 LP  0  0  0  0  0  0  0  0  0  0  0  0  # atno 27254 bound_to 17181
  256.1812    3.8968   37.7893 LP  0  0  0  0  0  0  0  0  0  0  0  0  # atno 27255 bound_to 17058
  257.4759    4.0379   36.6474 LP  0  0  0  0  0  0  0  0  0  0  0  0  # atno 27256 bound_to 17058
  250.3558    4.8428   44.6922 LP  0  0  0  0  0  0  0  0  0  0  0  0  # atno 27257 bound_to 17227
  250.6864    4.0927   43.1664 LP  0  0  0  0  0  0  0  0  0  0  0  0  # atno 27258 bound_to 17227
  255.3960    7.0432   34.5052 LP  0  0  0  0  0  0  0  0  0  0  0  0  # atno 27259 bound_to 18474
  254.2987    8.0944   33.9071 LP  0  0  0  0  0  0  0  0  0  0  0  0  # atno 27260 bound_to 18474
  250.6706    6.6034   43.6567 LP  0  0  0  0  0  0  0  0  0  0  0  0  # atno 27261 bound_to 17285
  251.2115    2.1356   44.1581 LP  0  0  0  0  0  0  0  0  0  0  0  0  # atno 27262 bound_to 18212
  253.7500   -1.5539   39.6533 LP  0  0  0  0  0  0  0  0  0  0  0  0  # atno 27263 bound_to 18282
  252.1751   -1.8753   39.3651 LP  0  0  0  0  0  0  0  0  0  0  0  0  # atno 27264 bound_to 18282
  248.8451   -4.2672   36.0358 LP  0  0  0  0  0  0  0  0  0  0  0  0  # atno 27265 bound_to 10098
  247.3849   -3.6153   36.3667 LP  0  0  0  0  0  0  0  0  0  0  0  0  # atno 27266 bound_to 10098
  250.5586   -1.4205   42.5032 LP  0  0  0  0  0  0  0  0  0  0  0  0  # atno 27267 bound_to 10137
  249.1159   -1.7840   41.6164 LP  0  0  0  0  0  0  0  0  0  0  0  0  # atno 27268 bound_to 10137
  251.5444   10.1188   42.9314 LP  0  0  0  0  0  0  0  0  0  0  0  0  # atno 27269 bound_to 11416
  252.3616    8.5916   42.9304 LP  0  0  0  0  0  0  0  0  0  0  0  0  # atno 27270 bound_to 11416
  255.9218    8.4894   36.2398 LP  0  0  0  0  0  0  0  0  0  0  0  0  # atno 27271 bound_to 16966
  256.4947    9.5133   35.1041 LP  0  0  0  0  0  0  0  0  0  0  0  0  # atno 27272 bound_to 16966
  254.9320    9.8919   43.5800 LP  0  0  0  0  0  0  0  0  0  0  0  0  # atno 27273 bound_to 11466
  255.5462    7.0171   43.1414 LP  0  0  0  0  0  0  0  0  0  0  0  0  # atno 27274 bound_to 11531
  258.3298    7.1510   37.7449 LP  0  0  0  0  0  0  0  0  0  0  0  0  # atno 27275 bound_to 11610
  257.5861    8.5413   38.4619 LP  0  0  0  0  0  0  0  0  0  0  0  0  # atno 27276 bound_to 11610
  257.6006    5.8210   40.5469 LP  0  0  0  0  0  0  0  0  0  0  0  0  # atno 27279 bound_to 11607
  255.2168   12.6382   42.4035 LP  0  0  0  0  0  0  0  0  0  0  0  0  # atno 27282 bound_to 11418
  254.2045   13.5896   41.5453 LP  0  0  0  0  0  0  0  0  0  0  0  0  # atno 27283 bound_to 11418
  253.3887   11.4737   29.7160 LP  0  0  0  0  0  0  0  0  0  0  0  0  # atno 27284 bound_to 18693
  251.7098   11.8876   29.8158 LP  0  0  0  0  0  0  0  0  0  0  0  0  # atno 27285 bound_to 18693

> <Gold.Score>
     Fitness  S(hb_ext) S(vdw_ext)  S(hb_int)    S(int)      intcor
     37.59       5.99      24.47       0.00      -2.04      -0.79

> <Gold.Goldscore.Fitness>
37.5932

> <Gold.Goldscore.Internal.Vdw>
-2.3798

> <Gold.Goldscore.Internal.Torsion>
-0.4487

> <Gold.Goldscore.External.Vdw>
24.4698

> <Gold.Goldscore.Internal.HBond>
0.0000

> <Gold.Goldscore.External.HBond>
5.9908

> <Gold.Goldscore.Internal.Correction>
-0.7850

> <Gold.Goldscore.Hbonds>
donor molecule, donor type, donor heavy atom, donor atom, acceptor molecule, acceptor atom, score
      P1  H 11473 11505       L1    17  0.02
      P1  H 19354 19405       L1    17  0.79
      L1  H    10    23       P1 18474  0.62

> <Gold.Goldscore.Internal.Vdw.Weighted>
-2.3798

> <Gold.Goldscore.Internal.Torsion.Weighted>
-0.4487

> <Gold.Goldscore.External.Vdw.Weighted>
33.6459

> <Gold.Goldscore.Internal.HBond.Weighted>
0.0000

> <Gold.Goldscore.External.HBond.Weighted>
5.9908

> <Gold.Goldscore.Internal.Correction.Weighted>
-0.7850

> <Gold.Rescore>
     Score     S(PLP)   S(hbond)     S(cho)   S(metal)  DE(clash)   DE(tors)     intcor
     26.16     -25.78       0.77       0.00       0.00       1.37       0.27       ----

> <Gold.PLP.Fitness>
26.1648

> <Gold.PLP.PLP>
-25.7799

> <Gold.PLP.part.hbond>
-4.1175

> <Gold.PLP.part.metal>
0.0000

> <Gold.PLP.part.buried>
-1.7219

> <Gold.PLP.part.nonpolar>
-23.1629

> <Gold.PLP.part.repulsive>
1.2346

> <Gold.PLP.ligand.clash>
1.3731

> <Gold.PLP.ligand.torsion>
0.2716

> <Gold.PLP.Chemscore.Hbond>
0.7670

> <Gold.PLP.Chemscore.CHOScore>
0.0000

> <Gold.PLP.Chemscore.Metal>
0.0000

> <Gold.Chemscore.Hbonds>
donor molecule, donor type, donor heavy atom, donor atom, acceptor molecule, acceptor atom, score
      L1  H    10    23       P1 18474  0.20
      P1  H 19354 19405       L1    17  1.00

> <Gold.PLP.Chemscore.Internal.Correction>
   9.000000E+99

