#       Name:                CT1002167954
#       Creating user name   hitesit
#       Creation time:       Sun Apr 16 23:04:51 2023


#       File generated by GOLD software.
#

@<TRIPOS>MOLECULE
CT1002167954|ligand_prepared|mol2|1|dock8
    29    30     1
SMALL
NO_CHARGES


@<TRIPOS>ATOM
      1 C1         250.3647   8.1503  35.8841 C.3            1 RES1               0.0000
      2 C2         249.5197   6.8642  35.7815 C.ar           1 RES1               0.0000
      3 C3         249.4003   9.3143  35.6764 C.2            1 RES1               0.0000
      4 C4         251.0188   8.1223  37.2611 C.2            1 RES1               0.0000
      5 C5         251.4867   8.2469  34.8241 C.3            1 RES1               0.0000
      6 C6         248.3069   6.7575  36.4557 C.ar           1 RES1               0.0000
      7 C7         249.9377   5.7790  35.0157 C.ar           1 RES1               0.0000
      8 N8         249.0578  10.0538  36.7699 N.am           1 RES1               0.0000
      9 O9         248.9169   9.5553  34.5771 O.2            1 RES1               0.0000
     10 N10        250.6494   9.0818  38.1670 N.am           1 RES1               0.0000
     11 O11        251.8383   7.2680  37.5754 O.2            1 RES1               0.0000
     12 C12        252.2030   9.5881  34.8100 C.3            1 RES1               0.0000
     13 C13        247.5383   5.6088  36.3653 C.ar           1 RES1               0.0000
     14 C14        249.1677   4.6311  34.9270 C.ar           1 RES1               0.0000
     15 C15        249.6759  10.0277  37.9942 C.2            1 RES1               0.0000
     16 C16        247.9679   4.5451  35.6007 C.ar           1 RES1               0.0000
     17 O17        249.3623  10.8221  38.8761 O.2            1 RES1               0.0000
     18 H18        252.2222   7.4558  35.0154 H              1 RES1               0.0000
     19 H19        251.0523   8.0682  33.8328 H              1 RES1               0.0000
     20 H20        247.9538   7.5833  37.0642 H              1 RES1               0.0000
     21 H21        250.8786   5.8239  34.4780 H              1 RES1               0.0000
     22 H22        248.2690  10.6845  36.6680 H              1 RES1               0.0000
     23 H23        251.1462   9.0919  39.0521 H              1 RES1               0.0000
     24 H24        252.9800   9.6024  34.0487 H              1 RES1               0.0000
     25 H25        251.5055  10.3957  34.5975 H              1 RES1               0.0000
     26 H26        252.6685   9.7869  35.7732 H              1 RES1               0.0000
     27 H27        246.5955   5.5456  36.8986 H              1 RES1               0.0000
     28 H28        249.5099   3.7962  34.3245 H              1 RES1               0.0000
     29 H29        247.3655   3.6455  35.5298 H              1 RES1               0.0000
@<TRIPOS>BOND
    1    1    2 1     
    2    1    3 1     
    3    1    4 1     
    4    1    5 1     
    5    2    6 ar    
    6    2    7 ar    
    7    3    8 1     
    8    3    9 2     
    9    4   10 1     
   10    4   11 2     
   11    5   12 1     
   12    5   18 1     
   13    5   19 1     
   14    6   13 ar    
   15    6   20 1     
   16    7   14 ar    
   17    7   21 1     
   18    8   15 1     
   19    8   22 1     
   20   10   15 1     
   21   10   23 1     
   22   12   24 1     
   23   12   25 1     
   24   12   26 1     
   25   13   16 ar    
   26   13   27 1     
   27   14   16 ar    
   28   14   28 1     
   29   15   17 2     
   30   16   29 1     
@<TRIPOS>SUBSTRUCTURE
      1 RES1           1
@<TRIPOS>SET
DONOR_HYDROGENS      STATIC     ATOMS    <user>   **** ""
2 22 23
ATOM$RED        STATIC     ATOMS    COLORGROUP SYSTEM
2 22 23
@<TRIPOS>COMMENT
> <Gold.Version>
2022.3.0

> <Gold.Id.Protein>
unknown|4v3u_clean|pdb

> <Gold.Protein.RotatedTorsions>
[  576  535  534  533 ] final  -65.11 input   59.97 | X-H torsion
[ 2566 2531 2532 2533 ] final   95.42 input  112.83 | X-H torsion
[ 2636 2605 2606 2607 ] final -159.35 input   41.41 | X-H torsion
[ 26091 26055 26054 26052 ] final  149.28 input   60.03 | X-H torsion
[ 27195 27136 27135 27131 ] final  -17.91 input   60.01 | X-H torsion
[  728  681  682  683 ] final   -5.56 input  102.19 | X-H torsion
[ 7435 7417 7418 7419 ] final  -40.87 input   81.33 | X-H torsion
[ 7494 7460 7461 7462 ] final -131.41 input  103.22 | X-H torsion
[ 7528 7515 7516 7517 ] final  -19.86 input   88.53 | X-H torsion
[ 17198 17178 17179 17180 ] final  -30.19 input   47.40 | X-H torsion
[ 17258 17224 17225 17226 ] final  125.36 input  102.98 | X-H torsion
[ 18298 18277 18278 18279 ] final  167.10 input   30.52 | X-H torsion
[ 18328 18315 18316 18317 ] final -178.08 input   53.77 | X-H torsion
[ 18417 18373 18374 18375 ] final -137.64 input   42.60 | X-H torsion
[ 18502 18463 18464 18465 ] final  -74.12 input  104.04 | X-H torsion
[ 18570 18535 18536 18537 ] final -177.63 input   89.36 | X-H torsion
[ 18510 18474 18473 18471 ] final   47.16 input   60.01 | X-H torsion
[ 17306 17285 17286 17287 ] final   86.85 input   49.80 | X-H torsion
[ 18250 18212 18213 18214 ] final  160.76 input   46.53 | X-H torsion
[ 18302 18282 18281 18278 ] final  -86.43 input   59.98 | X-H torsion
[ 10118 10098 10097 10094 ] final  139.01 input   59.98 | X-H torsion
[ 17002 16966 16965 16963 ] final   21.03 input   59.99 | X-H torsion
[ 11499 11466 11467 11468 ] final   -1.60 input   46.07 | X-H torsion
[ 11572 11531 11532 11533 ] final  148.20 input  118.20 | X-H torsion
[ 11648 11607 11608 11609 ] final   -0.45 input   50.96 | X-H torsion
[ 11438 11418 11417 11414 ] final -153.95 input   60.01 | X-H torsion
[ 27199 27138 27137 27135 ] final  142.85 input   60.02 | X-H torsion
[ 19310 19290 19289 19286 ] final  179.18 input   60.00 | X-H torsion
[ 10154 10134 10135 10136 ] final  154.86 input   25.69 | X-H torsion
[ 17361 17335 17336 17337 ] final   71.70 input   65.66 | X-H torsion
[ 27200  684  683  682 ] final    3.12 input    0.00 | X-H torsion
[ 27203 2534 2533 2532 ] final  -20.10 input    0.00 | X-H torsion
[ 27226 7339 7338 7337 ] final   83.97 input    0.00 | X-H torsion
[ 27232 17131 17130 17129 ] final  147.50 input    0.00 | X-H torsion
[ 27236 18215 18214 18213 ] final  142.80 input    0.00 | X-H torsion
[ 27239 18280 18279 18278 ] final -114.06 input    0.00 | X-H torsion
[ 27242 18318 18317 18316 ] final -119.54 input    0.00 | X-H torsion
[ 27245 18376 18375 18374 ] final -153.31 input   -0.00 | X-H torsion
[ 27253 17181 17180 17179 ] final -143.55 input    0.00 | X-H torsion
[ 27255 17058 17057 17056 ] final  122.40 input    0.00 | X-H torsion
[ 27257 17227 17226 17225 ] final  -15.57 input   -0.00 | X-H torsion
[ 27267 10137 10136 10135 ] final   70.43 input    0.00 | X-H torsion
[ 27269 11416 11415 11414 ] final -121.01 input    0.00 | X-H torsion
[ 27275 11610 11609 11608 ] final  136.15 input    0.00 | X-H torsion
[ 27284 18693 18692 18691 ] final   92.62 input    0.00 | X-H torsion

> <Gold.Protein.ActiveResidues>
 LYS309  TRP311  GLU314  MET341  HIS342  TRP414  ALA417  ARG419  CYS420  VAL421 
 GLY422  ARG423  SER462  ALA463  SER482  GLN483  LEU484  ILE485  ARG486  ALA502 
 TRP566  TYR567  LEU569  PRO570  ALA571  VAL572  SER573  ASN574  MET575  PHE589 
 SER590  GLY591  TRP592  TYR593  MET594  GLU597  ILE598  ARG601  ASP602  ASP605 
 SER607  ARG608  TRP683  HIS697  GLU699  TYR711  HEM750  H4B760 

> <Gold.Protein.RotatedAtoms>
  246.1747   25.1235   42.1072 H   0  0  0  0  0  0  0  0  0  0  0  0  # atno 576  bound_to 535 
  246.6916   23.9285   41.0810 H   0  0  0  0  0  0  0  0  0  0  0  0  # atno 577  bound_to 535 
  247.7069   25.1767   41.4778 H   0  0  0  0  0  0  0  0  0  0  0  0  # atno 578  bound_to 535 
  245.7916   25.5279   33.8379 H   0  0  0  0  0  0  0  0  0  0  0  0  # atno 728  bound_to 681 
  239.6261   20.5519   38.3436 H   0  0  0  0  0  0  0  0  0  0  0  0  # atno 2566 bound_to 2531
  240.0622   18.3026   40.3458 H   0  0  0  0  0  0  0  0  0  0  0  0  # atno 2636 bound_to 2605
  239.6959    6.4458   34.7359 H   0  0  0  0  0  0  0  0  0  0  0  0  # atno 7435 bound_to 7417
  240.7146    4.8959   32.9820 H   0  0  0  0  0  0  0  0  0  0  0  0  # atno 7494 bound_to 7460
  241.2830    1.9076   32.4252 H   0  0  0  0  0  0  0  0  0  0  0  0  # atno 7528 bound_to 7515
  247.2477   -5.0126   36.0249 H   0  0  0  0  0  0  0  0  0  0  0  0  # atno 10118 bound_to 10098
  250.5079   -4.7209   39.7815 H   0  0  0  0  0  0  0  0  0  0  0  0  # atno 10154 bound_to 10134
  254.4302   13.6628   41.7499 H   0  0  0  0  0  0  0  0  0  0  0  0  # atno 11438 bound_to 11418
  255.2979   10.0203   43.3293 H   0  0  0  0  0  0  0  0  0  0  0  0  # atno 11499 bound_to 11466
  255.1683    5.9901   42.5745 H   0  0  0  0  0  0  0  0  0  0  0  0  # atno 11572 bound_to 11531
  257.5382    6.8710   40.9125 H   0  0  0  0  0  0  0  0  0  0  0  0  # atno 11648 bound_to 11607
  255.9997    8.5184   36.4068 H   0  0  0  0  0  0  0  0  0  0  0  0  # atno 17002 bound_to 16966
  253.2255    5.0231   38.1472 H   0  0  0  0  0  0  0  0  0  0  0  0  # atno 17198 bound_to 17178
  250.7862    4.7691   40.2705 H   0  0  0  0  0  0  0  0  0  0  0  0  # atno 17258 bound_to 17224
  252.1239    7.5543   43.4989 H   0  0  0  0  0  0  0  0  0  0  0  0  # atno 17306 bound_to 17285
  250.3387    8.6562   44.9384 H   0  0  0  0  0  0  0  0  0  0  0  0  # atno 17361 bound_to 17335
  249.7111    2.1486   44.8414 H   0  0  0  0  0  0  0  0  0  0  0  0  # atno 18250 bound_to 18212
  250.9118    0.6261   41.6490 H   0  0  0  0  0  0  0  0  0  0  0  0  # atno 18298 bound_to 18277
  252.7878   -1.4615   40.8796 H   0  0  0  0  0  0  0  0  0  0  0  0  # atno 18302 bound_to 18282
  249.7735   -0.0361   38.1212 H   0  0  0  0  0  0  0  0  0  0  0  0  # atno 18328 bound_to 18315
  250.7925   -0.7761   34.7822 H   0  0  0  0  0  0  0  0  0  0  0  0  # atno 18417 bound_to 18373
  251.1459    1.2424   31.8357 H   0  0  0  0  0  0  0  0  0  0  0  0  # atno 18502 bound_to 18463
  254.3446    7.6925   34.3425 H   0  0  0  0  0  0  0  0  0  0  0  0  # atno 18510 bound_to 18474
  249.5111    3.0133   29.7243 H   0  0  0  0  0  0  0  0  0  0  0  0  # atno 18570 bound_to 18535
  252.0309   22.3605   33.8985 H   0  0  0  0  0  0  0  0  0  0  0  0  # atno 19310 bound_to 19290
  241.6235   12.7364   39.8218 H   0  0  0  0  0  0  0  0  0  0  0  0  # atno 26091 bound_to 26055
  243.8810   18.9196   31.6640 H   0  0  0  0  0  0  0  0  0  0  0  0  # atno 27195 bound_to 27136
  239.5099   19.6935   34.1555 H   0  0  0  0  0  0  0  0  0  0  0  0  # atno 27199 bound_to 27138
  248.9151   23.2323   35.9255 LP  0  0  0  0  0  0  0  0  0  0  0  0  # atno 27200 bound_to 684 
  249.9287   23.8921   34.6856 LP  0  0  0  0  0  0  0  0  0  0  0  0  # atno 27201 bound_to 684 
  238.4257   19.3994   37.8101 LP  0  0  0  0  0  0  0  0  0  0  0  0  # atno 27202 bound_to 2531
  239.8823   16.1127   39.5779 LP  0  0  0  0  0  0  0  0  0  0  0  0  # atno 27203 bound_to 2534
  239.9968   16.4967   41.2630 LP  0  0  0  0  0  0  0  0  0  0  0  0  # atno 27204 bound_to 2534
  239.0985   19.7468   40.5489 LP  0  0  0  0  0  0  0  0  0  0  0  0  # atno 27205 bound_to 2605
  243.1445   12.1626   39.7582 LP  0  0  0  0  0  0  0  0  0  0  0  0  # atno 27209 bound_to 26055
  242.8626   13.7600   39.5695 LP  0  0  0  0  0  0  0  0  0  0  0  0  # atno 27210 bound_to 26055
  243.8480   20.2979   32.5291 LP  0  0  0  0  0  0  0  0  0  0  0  0  # atno 27213 bound_to 27136
  242.7522   20.0478   31.3445 LP  0  0  0  0  0  0  0  0  0  0  0  0  # atno 27214 bound_to 27136
  244.6356   24.7314   34.8714 LP  0  0  0  0  0  0  0  0  0  0  0  0  # atno 27215 bound_to 681 
  242.0535    8.0015   34.7507 LP  0  0  0  0  0  0  0  0  0  0  0  0  # atno 27226 bound_to 7339
  241.1171    7.6080   33.3477 LP  0  0  0  0  0  0  0  0  0  0  0  0  # atno 27227 bound_to 7339
  240.1177    5.9854   36.3656 LP  0  0  0  0  0  0  0  0  0  0  0  0  # atno 27228 bound_to 7417
  242.3485    4.2759   32.8847 LP  0  0  0  0  0  0  0  0  0  0  0  0  # atno 27229 bound_to 7460
  242.8588    2.6116   32.1414 LP  0  0  0  0  0  0  0  0  0  0  0  0  # atno 27230 bound_to 7515
  252.2469    2.1156   38.4381 LP  0  0  0  0  0  0  0  0  0  0  0  0  # atno 27232 bound_to 17131
  251.7142    2.5310   36.8432 LP  0  0  0  0  0  0  0  0  0  0  0  0  # atno 27233 bound_to 17131
  254.3180    3.6603   38.1704 LP  0  0  0  0  0  0  0  0  0  0  0  0  # atno 27234 bound_to 17178
  252.3287    4.9176   41.0839 LP  0  0  0  0  0  0  0  0  0  0  0  0  # atno 27235 bound_to 17224
  251.6360    2.4865   40.8251 LP  0  0  0  0  0  0  0  0  0  0  0  0  # atno 27236 bound_to 18215
  250.3089    3.1861   41.6907 LP  0  0  0  0  0  0  0  0  0  0  0  0  # atno 27237 bound_to 18215
  249.5892   -0.2608   40.9314 LP  0  0  0  0  0  0  0  0  0  0  0  0  # atno 27238 bound_to 18277
  250.4321   -2.5132   38.4994 LP  0  0  0  0  0  0  0  0  0  0  0  0  # atno 27239 bound_to 18280
  249.2355   -1.7562   39.4969 LP  0  0  0  0  0  0  0  0  0  0  0  0  # atno 27240 bound_to 18280
  251.2089    0.3973   37.2181 LP  0  0  0  0  0  0  0  0  0  0  0  0  # atno 27241 bound_to 18315
  252.7995   -0.4624   35.1501 LP  0  0  0  0  0  0  0  0  0  0  0  0  # atno 27242 bound_to 18318
  252.3142   -2.0525   35.6360 LP  0  0  0  0  0  0  0  0  0  0  0  0  # atno 27243 bound_to 18318
  249.4998   -0.4725   33.6508 LP  0  0  0  0  0  0  0  0  0  0  0  0  # atno 27244 bound_to 18373
  249.4058    1.9715   31.4093 LP  0  0  0  0  0  0  0  0  0  0  0  0  # atno 27245 bound_to 18376
  249.3005    1.2751   32.9917 LP  0  0  0  0  0  0  0  0  0  0  0  0  # atno 27246 bound_to 18376
  252.7978    1.1616   31.2577 LP  0  0  0  0  0  0  0  0  0  0  0  0  # atno 27247 bound_to 18463
  250.7565    4.2144   29.4765 LP  0  0  0  0  0  0  0  0  0  0  0  0  # atno 27248 bound_to 18535
  253.3904    6.2713   42.1029 LP  0  0  0  0  0  0  0  0  0  0  0  0  # atno 27253 bound_to 17181
  254.3506    6.0558   40.6775 LP  0  0  0  0  0  0  0  0  0  0  0  0  # atno 27254 bound_to 17181
  256.6542    4.5718   36.6232 LP  0  0  0  0  0  0  0  0  0  0  0  0  # atno 27255 bound_to 17058
  257.0029    3.3628   37.8135 LP  0  0  0  0  0  0  0  0  0  0  0  0  # atno 27256 bound_to 17058
  250.0626    4.3080   43.2123 LP  0  0  0  0  0  0  0  0  0  0  0  0  # atno 27257 bound_to 17227
  250.9797    4.6275   44.6464 LP  0  0  0  0  0  0  0  0  0  0  0  0  # atno 27258 bound_to 17227
  255.2711    8.2853   33.1432 LP  0  0  0  0  0  0  0  0  0  0  0  0  # atno 27259 bound_to 18474
  255.8598    7.1343   34.1409 LP  0  0  0  0  0  0  0  0  0  0  0  0  # atno 27260 bound_to 18474
  250.7078    6.5431   43.6359 LP  0  0  0  0  0  0  0  0  0  0  0  0  # atno 27261 bound_to 17285
  251.0519    2.5461   43.7952 LP  0  0  0  0  0  0  0  0  0  0  0  0  # atno 27262 bound_to 18212
  253.7049   -1.5842   39.5413 LP  0  0  0  0  0  0  0  0  0  0  0  0  # atno 27263 bound_to 18282
  252.0987   -1.8681   39.4630 LP  0  0  0  0  0  0  0  0  0  0  0  0  # atno 27264 bound_to 18282
  248.8138   -4.5754   35.9599 LP  0  0  0  0  0  0  0  0  0  0  0  0  # atno 27265 bound_to 10098
  247.6737   -3.4802   36.3692 LP  0  0  0  0  0  0  0  0  0  0  0  0  # atno 27266 bound_to 10098
  249.1222   -1.7877   41.6078 LP  0  0  0  0  0  0  0  0  0  0  0  0  # atno 27267 bound_to 10137
  250.5523   -1.4168   42.5119 LP  0  0  0  0  0  0  0  0  0  0  0  0  # atno 27268 bound_to 10137
  252.2779    8.6432   43.3016 LP  0  0  0  0  0  0  0  0  0  0  0  0  # atno 27269 bound_to 11416
  251.6281   10.0672   42.5602 LP  0  0  0  0  0  0  0  0  0  0  0  0  # atno 27270 bound_to 11416
  256.3674    9.3793   35.0759 LP  0  0  0  0  0  0  0  0  0  0  0  0  # atno 27271 bound_to 16966
  257.0919    9.7211   36.4989 LP  0  0  0  0  0  0  0  0  0  0  0  0  # atno 27272 bound_to 16966
  253.8392   10.3236   42.4090 LP  0  0  0  0  0  0  0  0  0  0  0  0  # atno 27273 bound_to 11466
  256.1723    7.3533   42.1430 LP  0  0  0  0  0  0  0  0  0  0  0  0  # atno 27274 bound_to 11531
  257.6663    8.6148   38.3756 LP  0  0  0  0  0  0  0  0  0  0  0  0  # atno 27275 bound_to 11610
  258.2495    7.0775   37.8312 LP  0  0  0  0  0  0  0  0  0  0  0  0  # atno 27276 bound_to 11610
  258.4243    5.5043   41.5448 LP  0  0  0  0  0  0  0  0  0  0  0  0  # atno 27279 bound_to 11607
  253.9426   12.1883   41.2644 LP  0  0  0  0  0  0  0  0  0  0  0  0  # atno 27282 bound_to 11418
  255.1602   12.3349   42.3427 LP  0  0  0  0  0  0  0  0  0  0  0  0  # atno 27283 bound_to 11418
  252.7852   11.2652   30.4882 LP  0  0  0  0  0  0  0  0  0  0  0  0  # atno 27284 bound_to 18693
  252.3133   12.0961   29.0436 LP  0  0  0  0  0  0  0  0  0  0  0  0  # atno 27285 bound_to 18693

> <Gold.Score>
     Fitness  S(hb_ext) S(vdw_ext)  S(hb_int)    S(int)      intcor
     38.71       1.11      27.41       0.00      -0.09      -0.77

> <Gold.Goldscore.Fitness>
38.7131

> <Gold.Goldscore.Internal.Vdw>
-0.3994

> <Gold.Goldscore.Internal.Torsion>
-0.4571

> <Gold.Goldscore.External.Vdw>
27.4110

> <Gold.Goldscore.Internal.HBond>
0.0000

> <Gold.Goldscore.External.HBond>
1.1102

> <Gold.Goldscore.Internal.Correction>
-0.7693

> <Gold.Goldscore.Hbonds>
donor molecule, donor type, donor heavy atom, donor atom, acceptor molecule, acceptor atom, score
      P1  H 17178 17198       L1    11  0.41
      L1  H     8    22       P1 26924  0.05

> <Gold.Goldscore.Internal.Vdw.Weighted>
-0.3994

> <Gold.Goldscore.Internal.Torsion.Weighted>
-0.4571

> <Gold.Goldscore.External.Vdw.Weighted>
37.6901

> <Gold.Goldscore.Internal.HBond.Weighted>
0.0000

> <Gold.Goldscore.External.HBond.Weighted>
1.1102

> <Gold.Goldscore.Internal.Correction.Weighted>
-0.7693

> <Gold.Rescore>
     Score     S(PLP)   S(hbond)     S(cho)   S(metal)  DE(clash)   DE(tors)     intcor
     35.46     -32.84       1.00       0.00       0.00       0.00       0.19       ----

> <Gold.PLP.Fitness>
35.4649

> <Gold.PLP.PLP>
-32.8421

> <Gold.PLP.part.hbond>
-1.1959

> <Gold.PLP.part.metal>
0.0000

> <Gold.PLP.part.buried>
6.0692

> <Gold.PLP.part.nonpolar>
-44.6595

> <Gold.PLP.part.repulsive>
5.0189

> <Gold.PLP.ligand.clash>
0.0000

> <Gold.PLP.ligand.torsion>
0.1886

> <Gold.PLP.Chemscore.Hbond>
1.0000

> <Gold.PLP.Chemscore.CHOScore>
0.0000

> <Gold.PLP.Chemscore.Metal>
0.0000

> <Gold.Chemscore.Hbonds>
donor molecule, donor type, donor heavy atom, donor atom, acceptor molecule, acceptor atom, score
      L1  H     8    22       P1 26924  0.60

> <Gold.PLP.Chemscore.Internal.Correction>
   9.000000E+99

