#       Name:                CT1002167954
#       Creating user name   hitesit
#       Creation time:       Sun Apr 16 23:04:49 2023


#       File generated by GOLD software.
#

@<TRIPOS>MOLECULE
CT1002167954|ligand_prepared|mol2|1|dock5
    29    30     1
SMALL
NO_CHARGES


@<TRIPOS>ATOM
      1 C1         250.3169   7.6769  36.2261 C.3            1 RES1               0.0000
      2 C2         249.9098   8.8165  37.1823 C.ar           1 RES1               0.0000
      3 C3         251.1207   8.3261  35.1034 C.2            1 RES1               0.0000
      4 C4         251.1106   6.6803  37.0637 C.2            1 RES1               0.0000
      5 C5         249.1173   6.9271  35.6013 C.3            1 RES1               0.0000
      6 C6         250.7462   9.1974  38.2274 C.ar           1 RES1               0.0000
      7 C7         248.7046   9.4969  37.0306 C.ar           1 RES1               0.0000
      8 N8         252.4707   8.1327  35.0994 N.am           1 RES1               0.0000
      9 O9         250.5832   9.0297  34.2570 O.2            1 RES1               0.0000
     10 N10        252.4384   6.5096  36.7710 N.am           1 RES1               0.0000
     11 O11        250.6023   6.0537  37.9852 O.2            1 RES1               0.0000
     12 C12        249.4950   5.6139  34.9342 C.3            1 RES1               0.0000
     13 C13        250.3919  10.2232  39.0879 C.ar           1 RES1               0.0000
     14 C14        248.3521  10.5224  37.8924 C.ar           1 RES1               0.0000
     15 C15        253.1617   7.2132  35.8469 C.2            1 RES1               0.0000
     16 C16        249.1950  10.8867  38.9208 C.ar           1 RES1               0.0000
     17 O17        254.3655   7.0406  35.6790 O.2            1 RES1               0.0000
     18 H18        248.3793   6.7244  36.3873 H              1 RES1               0.0000
     19 H19        248.6433   7.5780  34.8562 H              1 RES1               0.0000
     20 H20        251.6909   8.6852  38.3760 H              1 RES1               0.0000
     21 H21        248.0253   9.2267  36.2292 H              1 RES1               0.0000
     22 H22        253.0170   8.7266  34.4837 H              1 RES1               0.0000
     23 H23        252.9335   5.7914  37.2901 H              1 RES1               0.0000
     24 H24        248.6172   5.1290  34.5125 H              1 RES1               0.0000
     25 H25        250.2089   5.7810  34.1304 H              1 RES1               0.0000
     26 H26        249.9465   4.9325  35.6523 H              1 RES1               0.0000
     27 H27        251.0582  10.5052  39.8965 H              1 RES1               0.0000
     28 H28        247.4089  11.0414  37.7575 H              1 RES1               0.0000
     29 H29        248.9179  11.6905  39.5948 H              1 RES1               0.0000
@<TRIPOS>BOND
    1    1    2 1     
    2    1    3 1     
    3    1    4 1     
    4    1    5 1     
    5    2    6 ar    
    6    2    7 ar    
    7    3    8 1     
    8    3    9 2     
    9    4   10 1     
   10    4   11 2     
   11    5   12 1     
   12    5   18 1     
   13    5   19 1     
   14    6   13 ar    
   15    6   20 1     
   16    7   14 ar    
   17    7   21 1     
   18    8   15 1     
   19    8   22 1     
   20   10   15 1     
   21   10   23 1     
   22   12   24 1     
   23   12   25 1     
   24   12   26 1     
   25   13   16 ar    
   26   13   27 1     
   27   14   16 ar    
   28   14   28 1     
   29   15   17 2     
   30   16   29 1     
@<TRIPOS>SUBSTRUCTURE
      1 RES1           1
@<TRIPOS>SET
DONOR_HYDROGENS      STATIC     ATOMS    <user>   **** ""
2 22 23
ATOM$RED        STATIC     ATOMS    COLORGROUP SYSTEM
2 22 23
@<TRIPOS>COMMENT
> <Gold.Version>
2022.3.0

> <Gold.Id.Protein>
unknown|4v3u_clean|pdb

> <Gold.Protein.RotatedTorsions>
[  576  535  534  533 ] final  169.57 input   59.97 | X-H torsion
[ 2566 2531 2532 2533 ] final    5.83 input  112.83 | X-H torsion
[ 2636 2605 2606 2607 ] final  104.59 input   41.41 | X-H torsion
[ 26091 26055 26054 26052 ] final   25.08 input   60.03 | X-H torsion
[ 27195 27136 27135 27131 ] final   -3.14 input   60.01 | X-H torsion
[  728  681  682  683 ] final -136.67 input  102.19 | X-H torsion
[ 7435 7417 7418 7419 ] final   58.02 input   81.33 | X-H torsion
[ 7494 7460 7461 7462 ] final  -37.32 input  103.22 | X-H torsion
[ 7528 7515 7516 7517 ] final   67.71 input   88.53 | X-H torsion
[ 17198 17178 17179 17180 ] final  136.49 input   47.40 | X-H torsion
[ 17258 17224 17225 17226 ] final  -62.78 input  102.98 | X-H torsion
[ 18298 18277 18278 18279 ] final -158.92 input   30.52 | X-H torsion
[ 18328 18315 18316 18317 ] final  147.05 input   53.77 | X-H torsion
[ 18417 18373 18374 18375 ] final    3.57 input   42.60 | X-H torsion
[ 18502 18463 18464 18465 ] final   41.26 input  104.04 | X-H torsion
[ 18570 18535 18536 18537 ] final  123.70 input   89.36 | X-H torsion
[ 18510 18474 18473 18471 ] final  -68.72 input   60.01 | X-H torsion
[ 17306 17285 17286 17287 ] final -118.85 input   49.80 | X-H torsion
[ 18250 18212 18213 18214 ] final   81.95 input   46.53 | X-H torsion
[ 18302 18282 18281 18278 ] final   84.84 input   59.98 | X-H torsion
[ 10118 10098 10097 10094 ] final  -92.97 input   59.98 | X-H torsion
[ 17002 16966 16965 16963 ] final   62.23 input   59.99 | X-H torsion
[ 11499 11466 11467 11468 ] final  -13.73 input   46.07 | X-H torsion
[ 11572 11531 11532 11533 ] final  164.93 input  118.20 | X-H torsion
[ 11648 11607 11608 11609 ] final  127.05 input   50.96 | X-H torsion
[ 11438 11418 11417 11414 ] final -123.73 input   60.01 | X-H torsion
[ 27199 27138 27137 27135 ] final   23.94 input   60.02 | X-H torsion
[ 19310 19290 19289 19286 ] final -142.39 input   60.00 | X-H torsion
[ 10154 10134 10135 10136 ] final  134.21 input   25.69 | X-H torsion
[ 17361 17335 17336 17337 ] final -120.56 input   65.66 | X-H torsion
[ 27200  684  683  682 ] final -154.31 input    0.00 | X-H torsion
[ 27203 2534 2533 2532 ] final -140.80 input    0.00 | X-H torsion
[ 27226 7339 7338 7337 ] final -175.37 input    0.00 | X-H torsion
[ 27232 17131 17130 17129 ] final  -77.45 input    0.00 | X-H torsion
[ 27236 18215 18214 18213 ] final   52.64 input    0.00 | X-H torsion
[ 27239 18280 18279 18278 ] final  -95.64 input    0.00 | X-H torsion
[ 27242 18318 18317 18316 ] final -108.78 input    0.00 | X-H torsion
[ 27245 18376 18375 18374 ] final  134.74 input   -0.00 | X-H torsion
[ 27253 17181 17180 17179 ] final -152.36 input    0.00 | X-H torsion
[ 27255 17058 17057 17056 ] final -127.83 input    0.00 | X-H torsion
[ 27257 17227 17226 17225 ] final  -95.16 input   -0.00 | X-H torsion
[ 27267 10137 10136 10135 ] final   38.67 input    0.00 | X-H torsion
[ 27269 11416 11415 11414 ] final  104.81 input    0.00 | X-H torsion
[ 27275 11610 11609 11608 ] final  -44.71 input    0.00 | X-H torsion
[ 27284 18693 18692 18691 ] final  -36.60 input    0.00 | X-H torsion

> <Gold.Protein.ActiveResidues>
 LYS309  TRP311  GLU314  MET341  HIS342  TRP414  ALA417  ARG419  CYS420  VAL421 
 GLY422  ARG423  SER462  ALA463  SER482  GLN483  LEU484  ILE485  ARG486  ALA502 
 TRP566  TYR567  LEU569  PRO570  ALA571  VAL572  SER573  ASN574  MET575  PHE589 
 SER590  GLY591  TRP592  TYR593  MET594  GLU597  ILE598  ARG601  ASP602  ASP605 
 SER607  ARG608  TRP683  HIS697  GLU699  TYR711  HEM750  H4B760 

> <Gold.Protein.RotatedAtoms>
  247.7314   25.1102   41.4233 H   0  0  0  0  0  0  0  0  0  0  0  0  # atno 576  bound_to 535 
  246.2317   25.1881   42.1256 H   0  0  0  0  0  0  0  0  0  0  0  0  # atno 577  bound_to 535 
  246.6099   23.9292   41.1164 H   0  0  0  0  0  0  0  0  0  0  0  0  # atno 578  bound_to 535 
  244.9139   25.3342   35.1541 H   0  0  0  0  0  0  0  0  0  0  0  0  # atno 728  bound_to 681 
  238.6551   19.9850   38.8791 H   0  0  0  0  0  0  0  0  0  0  0  0  # atno 2566 bound_to 2531
  240.2444   19.5601   40.6862 H   0  0  0  0  0  0  0  0  0  0  0  0  # atno 2636 bound_to 2605
  239.3327    5.5585   35.6662 H   0  0  0  0  0  0  0  0  0  0  0  0  # atno 7435 bound_to 7417
  241.3555    3.8328   33.3756 H   0  0  0  0  0  0  0  0  0  0  0  0  # atno 7494 bound_to 7460
  242.1725    2.3231   33.1613 H   0  0  0  0  0  0  0  0  0  0  0  0  # atno 7528 bound_to 7515
  247.8036   -3.4601   36.3623 H   0  0  0  0  0  0  0  0  0  0  0  0  # atno 10118 bound_to 10098
  250.7014   -4.4713   39.8018 H   0  0  0  0  0  0  0  0  0  0  0  0  # atno 10154 bound_to 10134
  254.7923   13.5784   42.0660 H   0  0  0  0  0  0  0  0  0  0  0  0  # atno 11438 bound_to 11418
  255.1789    9.9479   43.4560 H   0  0  0  0  0  0  0  0  0  0  0  0  # atno 11499 bound_to 11466
  255.1526    6.1196   42.7958 H   0  0  0  0  0  0  0  0  0  0  0  0  # atno 11572 bound_to 11531
  258.0099    5.3591   40.9088 H   0  0  0  0  0  0  0  0  0  0  0  0  # atno 11648 bound_to 11607
  256.3937    8.8172   36.8421 H   0  0  0  0  0  0  0  0  0  0  0  0  # atno 17002 bound_to 16966
  254.4584    3.7806   38.2555 H   0  0  0  0  0  0  0  0  0  0  0  0  # atno 17198 bound_to 17178
  252.3755    5.0174   41.0174 H   0  0  0  0  0  0  0  0  0  0  0  0  # atno 17258 bound_to 17224
  250.9712    6.2834   43.5174 H   0  0  0  0  0  0  0  0  0  0  0  0  # atno 17306 bound_to 17285
  251.1932    7.9838   46.3182 H   0  0  0  0  0  0  0  0  0  0  0  0  # atno 17361 bound_to 17335
  249.7684    2.9008   44.0146 H   0  0  0  0  0  0  0  0  0  0  0  0  # atno 18250 bound_to 18212
  250.5545    0.9723   41.5130 H   0  0  0  0  0  0  0  0  0  0  0  0  # atno 18298 bound_to 18277
  252.7984   -1.8328   39.0506 H   0  0  0  0  0  0  0  0  0  0  0  0  # atno 18302 bound_to 18282
  249.6623    0.4079   37.8481 H   0  0  0  0  0  0  0  0  0  0  0  0  # atno 18328 bound_to 18315
  249.6115    0.0190   33.9368 H   0  0  0  0  0  0  0  0  0  0  0  0  # atno 18417 bound_to 18373
  252.0989    0.7878   30.7576 H   0  0  0  0  0  0  0  0  0  0  0  0  # atno 18502 bound_to 18463
  255.2067    8.3017   33.1581 H   0  0  0  0  0  0  0  0  0  0  0  0  # atno 18510 bound_to 18474
  249.3639    3.8333   29.9638 H   0  0  0  0  0  0  0  0  0  0  0  0  # atno 18570 bound_to 18535
  251.7737   22.3571   33.3387 H   0  0  0  0  0  0  0  0  0  0  0  0  # atno 19310 bound_to 19290
  243.1910   12.2134   39.7499 H   0  0  0  0  0  0  0  0  0  0  0  0  # atno 26091 bound_to 26055
  243.7080   18.9106   31.4968 H   0  0  0  0  0  0  0  0  0  0  0  0  # atno 27195 bound_to 27136
  240.6624   18.6414   34.5611 H   0  0  0  0  0  0  0  0  0  0  0  0  # atno 27199 bound_to 27138
  249.9200   24.1483   34.9074 LP  0  0  0  0  0  0  0  0  0  0  0  0  # atno 27200 bound_to 684 
  248.9239   22.9761   35.7036 LP  0  0  0  0  0  0  0  0  0  0  0  0  # atno 27201 bound_to 684 
  239.3745   19.9534   37.2869 LP  0  0  0  0  0  0  0  0  0  0  0  0  # atno 27202 bound_to 2531
  239.2265   16.3794   40.9062 LP  0  0  0  0  0  0  0  0  0  0  0  0  # atno 27203 bound_to 2534
  240.6526   16.2300   39.9347 LP  0  0  0  0  0  0  0  0  0  0  0  0  # atno 27204 bound_to 2534
  238.9206   18.5195   40.2168 LP  0  0  0  0  0  0  0  0  0  0  0  0  # atno 27205 bound_to 2605
  242.7971   13.7819   39.5725 LP  0  0  0  0  0  0  0  0  0  0  0  0  # atno 27209 bound_to 26055
  241.6308   12.6678   39.8277 LP  0  0  0  0  0  0  0  0  0  0  0  0  # atno 27210 bound_to 26055
  244.0031   20.1132   32.5531 LP  0  0  0  0  0  0  0  0  0  0  0  0  # atno 27213 bound_to 27136
  242.7713   20.2416   31.4888 LP  0  0  0  0  0  0  0  0  0  0  0  0  # atno 27214 bound_to 27136
  245.5057   24.9234   33.5665 LP  0  0  0  0  0  0  0  0  0  0  0  0  # atno 27215 bound_to 681 
  241.8625    6.9994   33.8923 LP  0  0  0  0  0  0  0  0  0  0  0  0  # atno 27226 bound_to 7339
  241.3081    8.6101   34.2061 LP  0  0  0  0  0  0  0  0  0  0  0  0  # atno 27227 bound_to 7339
  240.4755    6.8595   35.4491 LP  0  0  0  0  0  0  0  0  0  0  0  0  # atno 27228 bound_to 7417
  241.7286    5.3041   32.5041 LP  0  0  0  0  0  0  0  0  0  0  0  0  # atno 27229 bound_to 7460
  241.9936    2.2075   31.4253 LP  0  0  0  0  0  0  0  0  0  0  0  0  # atno 27230 bound_to 7515
  251.4010    2.8771   37.3128 LP  0  0  0  0  0  0  0  0  0  0  0  0  # atno 27232 bound_to 17131
  252.5600    1.7695   37.9684 LP  0  0  0  0  0  0  0  0  0  0  0  0  # atno 27233 bound_to 17131
  253.1114    4.8763   38.0645 LP  0  0  0  0  0  0  0  0  0  0  0  0  # atno 27234 bound_to 17178
  250.7895    4.6772   40.3605 LP  0  0  0  0  0  0  0  0  0  0  0  0  # atno 27235 bound_to 17224
  251.4498    2.8538   41.9803 LP  0  0  0  0  0  0  0  0  0  0  0  0  # atno 27236 bound_to 18215
  250.4950    2.8187   40.5355 LP  0  0  0  0  0  0  0  0  0  0  0  0  # atno 27237 bound_to 18215
  249.9392   -0.5998   41.0646 LP  0  0  0  0  0  0  0  0  0  0  0  0  # atno 27238 bound_to 18277
  250.5760   -2.4956   38.7357 LP  0  0  0  0  0  0  0  0  0  0  0  0  # atno 27239 bound_to 18280
  249.0916   -1.7738   39.2605 LP  0  0  0  0  0  0  0  0  0  0  0  0  # atno 27240 bound_to 18280
  251.3165   -0.0323   37.4824 LP  0  0  0  0  0  0  0  0  0  0  0  0  # atno 27241 bound_to 18315
  252.7776   -0.4245   35.3065 LP  0  0  0  0  0  0  0  0  0  0  0  0  # atno 27242 bound_to 18318
  252.3361   -2.0904   35.4796 LP  0  0  0  0  0  0  0  0  0  0  0  0  # atno 27243 bound_to 18318
  250.6661   -1.2577   34.4857 LP  0  0  0  0  0  0  0  0  0  0  0  0  # atno 27244 bound_to 18373
  249.6420    2.4355   32.2834 LP  0  0  0  0  0  0  0  0  0  0  0  0  # atno 27245 bound_to 18376
  249.0643    0.8111   32.1176 LP  0  0  0  0  0  0  0  0  0  0  0  0  # atno 27246 bound_to 18376
  251.8808    1.5990   32.2950 LP  0  0  0  0  0  0  0  0  0  0  0  0  # atno 27247 bound_to 18463
  250.9001    3.4144   29.2428 LP  0  0  0  0  0  0  0  0  0  0  0  0  # atno 27248 bound_to 18535
  253.3330    6.3713   42.0366 LP  0  0  0  0  0  0  0  0  0  0  0  0  # atno 27253 bound_to 17181
  254.4080    5.9558   40.7437 LP  0  0  0  0  0  0  0  0  0  0  0  0  # atno 27254 bound_to 17181
  256.1715    3.9109   37.7797 LP  0  0  0  0  0  0  0  0  0  0  0  0  # atno 27255 bound_to 17058
  257.4856    4.0238   36.6570 LP  0  0  0  0  0  0  0  0  0  0  0  0  # atno 27256 bound_to 17058
  249.7555    4.8037   44.1550 LP  0  0  0  0  0  0  0  0  0  0  0  0  # atno 27257 bound_to 17227
  251.2867    4.1317   43.7036 LP  0  0  0  0  0  0  0  0  0  0  0  0  # atno 27258 bound_to 17227
  255.8965    7.1602   34.0904 LP  0  0  0  0  0  0  0  0  0  0  0  0  # atno 27259 bound_to 18474
  254.3658    7.6455   34.3870 LP  0  0  0  0  0  0  0  0  0  0  0  0  # atno 27260 bound_to 18474
  251.8415    7.7931   43.6177 LP  0  0  0  0  0  0  0  0  0  0  0  0  # atno 27261 bound_to 17285
  250.9957    1.8082   44.6063 LP  0  0  0  0  0  0  0  0  0  0  0  0  # atno 27262 bound_to 18212
  252.0927   -1.6564   40.5059 LP  0  0  0  0  0  0  0  0  0  0  0  0  # atno 27263 bound_to 18282
  253.7003   -1.4219   40.3409 LP  0  0  0  0  0  0  0  0  0  0  0  0  # atno 27264 bound_to 18282
  247.1575   -4.9219   36.0559 LP  0  0  0  0  0  0  0  0  0  0  0  0  # atno 27265 bound_to 10098
  248.7703   -4.6970   35.9335 LP  0  0  0  0  0  0  0  0  0  0  0  0  # atno 27266 bound_to 10098
  249.4865   -1.9077   41.3293 LP  0  0  0  0  0  0  0  0  0  0  0  0  # atno 27267 bound_to 10137
  250.1880   -1.2968   42.7904 LP  0  0  0  0  0  0  0  0  0  0  0  0  # atno 27268 bound_to 10137
  251.9185    9.6498   42.1173 LP  0  0  0  0  0  0  0  0  0  0  0  0  # atno 27269 bound_to 11416
  251.9875    9.0606   43.7445 LP  0  0  0  0  0  0  0  0  0  0  0  0  # atno 27270 bound_to 11416
  255.9792    8.8774   35.2697 LP  0  0  0  0  0  0  0  0  0  0  0  0  # atno 27271 bound_to 16966
  257.0832    9.9221   35.8666 LP  0  0  0  0  0  0  0  0  0  0  0  0  # atno 27272 bound_to 16966
  253.9539   10.3934   42.2868 LP  0  0  0  0  0  0  0  0  0  0  0  0  # atno 27273 bound_to 11466
  256.1877    7.2265   41.9264 LP  0  0  0  0  0  0  0  0  0  0  0  0  # atno 27274 bound_to 11531
  258.2573    7.0835   37.8228 LP  0  0  0  0  0  0  0  0  0  0  0  0  # atno 27275 bound_to 11610
  257.6585    8.6088   38.3839 LP  0  0  0  0  0  0  0  0  0  0  0  0  # atno 27276 bound_to 11610
  257.9626    6.9844   41.5484 LP  0  0  0  0  0  0  0  0  0  0  0  0  # atno 27279 bound_to 11607
  253.8081   12.6498   41.1623 LP  0  0  0  0  0  0  0  0  0  0  0  0  # atno 27282 bound_to 11418
  254.9300   11.9583   42.1264 LP  0  0  0  0  0  0  0  0  0  0  0  0  # atno 27283 bound_to 11418
  251.7750   12.0005   29.5462 LP  0  0  0  0  0  0  0  0  0  0  0  0  # atno 27284 bound_to 18693
  253.3235   11.3608   29.9855 LP  0  0  0  0  0  0  0  0  0  0  0  0  # atno 27285 bound_to 18693

> <Gold.Score>
     Fitness  S(hb_ext) S(vdw_ext)  S(hb_int)    S(int)      intcor
     38.23       5.99      23.75       0.00      -0.41      -0.77

> <Gold.Goldscore.Fitness>
38.2348

> <Gold.Goldscore.Internal.Vdw>
-0.5227

> <Gold.Goldscore.Internal.Torsion>
-0.6592

> <Gold.Goldscore.External.Vdw>
23.7513

> <Gold.Goldscore.Internal.HBond>
0.0000

> <Gold.Goldscore.External.HBond>
5.9894

> <Gold.Goldscore.Internal.Correction>
-0.7693

> <Gold.Goldscore.Hbonds>
donor molecule, donor type, donor heavy atom, donor atom, acceptor molecule, acceptor atom, score
      L1  H    10    23       P1 17178  1.00

> <Gold.Goldscore.Internal.Vdw.Weighted>
-0.5227

> <Gold.Goldscore.Internal.Torsion.Weighted>
-0.6592

> <Gold.Goldscore.External.Vdw.Weighted>
32.6581

> <Gold.Goldscore.Internal.HBond.Weighted>
0.0000

> <Gold.Goldscore.External.HBond.Weighted>
5.9894

> <Gold.Goldscore.Internal.Correction.Weighted>
-0.7693

> <Gold.Rescore>
     Score     S(PLP)   S(hbond)     S(cho)   S(metal)  DE(clash)   DE(tors)     intcor
     10.03      -8.43       0.93       0.00       0.00       0.00       0.59       ----

> <Gold.PLP.Fitness>
10.0263

> <Gold.PLP.PLP>
-8.4277

> <Gold.PLP.part.hbond>
-5.3701

> <Gold.PLP.part.metal>
0.0000

> <Gold.PLP.part.buried>
16.9415

> <Gold.PLP.part.nonpolar>
-31.1961

> <Gold.PLP.part.repulsive>
8.9264

> <Gold.PLP.ligand.clash>
0.0000

> <Gold.PLP.ligand.torsion>
0.5901

> <Gold.PLP.Chemscore.Hbond>
0.9263

> <Gold.PLP.Chemscore.CHOScore>
0.0000

> <Gold.PLP.Chemscore.Metal>
0.0000

> <Gold.Chemscore.Hbonds>
donor molecule, donor type, donor heavy atom, donor atom, acceptor molecule, acceptor atom, score
      L1  H    10    23       P1 17178  0.81

> <Gold.PLP.Chemscore.Internal.Correction>
   9.000000E+99

