#       Name:                CT1002167954
#       Creating user name   hitesit
#       Creation time:       Sun Apr 16 23:04:52 2023


#       File generated by GOLD software.
#

@<TRIPOS>MOLECULE
CT1002167954|ligand_prepared|mol2|1|dock9
    29    30     1
SMALL
NO_CHARGES


@<TRIPOS>ATOM
      1 C1         250.0327   8.3993  36.8396 C.3            1 RES1               0.0000
      2 C2         249.7687   9.4874  37.9004 C.ar           1 RES1               0.0000
      3 C3         250.3178   9.1347  35.5334 C.2            1 RES1               0.0000
      4 C4         251.2054   7.5740  37.3576 C.2            1 RES1               0.0000
      5 C5         248.8382   7.4433  36.6145 C.3            1 RES1               0.0000
      6 C6         248.5241  10.1037  37.9888 C.ar           1 RES1               0.0000
      7 C7         250.7574   9.8828  38.7975 C.ar           1 RES1               0.0000
      8 N8         251.6085   9.1650  35.0940 N.am           1 RES1               0.0000
      9 O9         249.4300   9.7129  34.9187 O.2            1 RES1               0.0000
     10 N10        252.3797   7.6137  36.6525 N.am           1 RES1               0.0000
     11 O11        251.1282   6.9028  38.3793 O.2            1 RES1               0.0000
     12 C12        249.1969   6.1860  35.8382 C.3            1 RES1               0.0000
     13 C13        248.2758  11.0778  38.9415 C.ar           1 RES1               0.0000
     14 C14        250.5070  10.8574  39.7494 C.ar           1 RES1               0.0000
     15 C15        252.6438   8.3959  35.5613 C.2            1 RES1               0.0000
     16 C16        249.2668  11.4550  39.8226 C.ar           1 RES1               0.0000
     17 O17        253.7424   8.4175  35.0139 O.2            1 RES1               0.0000
     18 H18        248.4306   7.1516  37.5903 H              1 RES1               0.0000
     19 H19        248.0525   7.9820  36.0705 H              1 RES1               0.0000
     20 H20        247.7328   9.8216  37.3024 H              1 RES1               0.0000
     21 H21        251.7409   9.4270  38.7577 H              1 RES1               0.0000
     22 H22        251.8239   9.8202  34.3493 H              1 RES1               0.0000
     23 H23        253.1260   7.0036  36.9703 H              1 RES1               0.0000
     24 H24        248.3235   5.5505  35.7083 H              1 RES1               0.0000
     25 H25        249.5822   6.4381  34.8524 H              1 RES1               0.0000
     26 H26        249.9582   5.6126  36.3632 H              1 RES1               0.0000
     27 H27        247.2985  11.5461  38.9941 H              1 RES1               0.0000
     28 H28        251.2901  11.1515  40.4404 H              1 RES1               0.0000
     29 H29        249.0719  12.2179  40.5691 H              1 RES1               0.0000
@<TRIPOS>BOND
    1    1    2 1     
    2    1    3 1     
    3    1    4 1     
    4    1    5 1     
    5    2    6 ar    
    6    2    7 ar    
    7    3    8 1     
    8    3    9 2     
    9    4   10 1     
   10    4   11 2     
   11    5   12 1     
   12    5   18 1     
   13    5   19 1     
   14    6   13 ar    
   15    6   20 1     
   16    7   14 ar    
   17    7   21 1     
   18    8   15 1     
   19    8   22 1     
   20   10   15 1     
   21   10   23 1     
   22   12   24 1     
   23   12   25 1     
   24   12   26 1     
   25   13   16 ar    
   26   13   27 1     
   27   14   16 ar    
   28   14   28 1     
   29   15   17 2     
   30   16   29 1     
@<TRIPOS>SUBSTRUCTURE
      1 RES1           1
@<TRIPOS>SET
DONOR_HYDROGENS      STATIC     ATOMS    <user>   **** ""
2 22 23
ATOM$RED        STATIC     ATOMS    COLORGROUP SYSTEM
2 22 23
@<TRIPOS>COMMENT
> <Gold.Version>
2022.3.0

> <Gold.Id.Protein>
unknown|4v3u_clean|pdb

> <Gold.Protein.RotatedTorsions>
[  576  535  534  533 ] final  -46.32 input   59.97 | X-H torsion
[ 2566 2531 2532 2533 ] final  161.02 input  112.83 | X-H torsion
[ 2636 2605 2606 2607 ] final -153.77 input   41.41 | X-H torsion
[ 26091 26055 26054 26052 ] final  -53.55 input   60.03 | X-H torsion
[ 27195 27136 27135 27131 ] final   70.43 input   60.01 | X-H torsion
[  728  681  682  683 ] final   51.63 input  102.19 | X-H torsion
[ 7435 7417 7418 7419 ] final    1.41 input   81.33 | X-H torsion
[ 7494 7460 7461 7462 ] final  -30.19 input  103.22 | X-H torsion
[ 7528 7515 7516 7517 ] final   -0.76 input   88.53 | X-H torsion
[ 17198 17178 17179 17180 ] final  168.61 input   47.40 | X-H torsion
[ 17258 17224 17225 17226 ] final -120.01 input  102.98 | X-H torsion
[ 18298 18277 18278 18279 ] final -142.07 input   30.52 | X-H torsion
[ 18328 18315 18316 18317 ] final  -58.91 input   53.77 | X-H torsion
[ 18417 18373 18374 18375 ] final -170.61 input   42.60 | X-H torsion
[ 18502 18463 18464 18465 ] final   35.13 input  104.04 | X-H torsion
[ 18570 18535 18536 18537 ] final   25.01 input   89.36 | X-H torsion
[ 18510 18474 18473 18471 ] final   28.93 input   60.01 | X-H torsion
[ 17306 17285 17286 17287 ] final  -82.26 input   49.80 | X-H torsion
[ 18250 18212 18213 18214 ] final  157.47 input   46.53 | X-H torsion
[ 18302 18282 18281 18278 ] final  113.79 input   59.98 | X-H torsion
[ 10118 10098 10097 10094 ] final  -79.74 input   59.98 | X-H torsion
[ 17002 16966 16965 16963 ] final -114.56 input   59.99 | X-H torsion
[ 11499 11466 11467 11468 ] final -173.78 input   46.07 | X-H torsion
[ 11572 11531 11532 11533 ] final   46.22 input  118.20 | X-H torsion
[ 11648 11607 11608 11609 ] final -176.07 input   50.96 | X-H torsion
[ 11438 11418 11417 11414 ] final  153.48 input   60.01 | X-H torsion
[ 27199 27138 27137 27135 ] final -167.03 input   60.02 | X-H torsion
[ 19310 19290 19289 19286 ] final  -41.79 input   60.00 | X-H torsion
[ 10154 10134 10135 10136 ] final   69.13 input   25.69 | X-H torsion
[ 17361 17335 17336 17337 ] final   56.79 input   65.66 | X-H torsion
[ 27200  684  683  682 ] final   59.95 input    0.00 | X-H torsion
[ 27203 2534 2533 2532 ] final   -4.63 input    0.00 | X-H torsion
[ 27226 7339 7338 7337 ] final   31.84 input    0.00 | X-H torsion
[ 27232 17131 17130 17129 ] final -131.26 input    0.00 | X-H torsion
[ 27236 18215 18214 18213 ] final -101.88 input    0.00 | X-H torsion
[ 27239 18280 18279 18278 ] final  -28.42 input    0.00 | X-H torsion
[ 27242 18318 18317 18316 ] final  -40.07 input    0.00 | X-H torsion
[ 27245 18376 18375 18374 ] final  -93.65 input   -0.00 | X-H torsion
[ 27253 17181 17180 17179 ] final -137.52 input    0.00 | X-H torsion
[ 27255 17058 17057 17056 ] final  -41.68 input    0.00 | X-H torsion
[ 27257 17227 17226 17225 ] final  -51.13 input   -0.00 | X-H torsion
[ 27267 10137 10136 10135 ] final  132.65 input    0.00 | X-H torsion
[ 27269 11416 11415 11414 ] final  -68.84 input    0.00 | X-H torsion
[ 27275 11610 11609 11608 ] final  -36.04 input    0.00 | X-H torsion
[ 27284 18693 18692 18691 ] final -145.86 input    0.00 | X-H torsion

> <Gold.Protein.ActiveResidues>
 LYS309  TRP311  GLU314  MET341  HIS342  TRP414  ALA417  ARG419  CYS420  VAL421 
 GLY422  ARG423  SER462  ALA463  SER482  GLN483  LEU484  ILE485  ARG486  ALA502 
 TRP566  TYR567  LEU569  PRO570  ALA571  VAL572  SER573  ASN574  MET575  PHE589 
 SER590  GLY591  TRP592  TYR593  MET594  GLU597  ILE598  ARG601  ASP602  ASP605 
 SER607  ARG608  TRP683  HIS697  GLU699  TYR711  HEM750  H4B760 

> <Gold.Protein.RotatedAtoms>
  246.0221   24.8711   42.0040 H   0  0  0  0  0  0  0  0  0  0  0  0  # atno 576  bound_to 535 
  246.9855   23.9819   40.9894 H   0  0  0  0  0  0  0  0  0  0  0  0  # atno 577  bound_to 535 
  247.5654   25.3758   41.6727 H   0  0  0  0  0  0  0  0  0  0  0  0  # atno 578  bound_to 535 
  245.4170   24.8322   33.5590 H   0  0  0  0  0  0  0  0  0  0  0  0  # atno 728  bound_to 681 
  239.6074   20.1961   37.4547 H   0  0  0  0  0  0  0  0  0  0  0  0  # atno 2566 bound_to 2531
  239.9893   18.2621   40.3245 H   0  0  0  0  0  0  0  0  0  0  0  0  # atno 2636 bound_to 2605
  239.3382    5.9623   34.9367 H   0  0  0  0  0  0  0  0  0  0  0  0  # atno 7435 bound_to 7417
  241.4615    3.8053   33.3608 H   0  0  0  0  0  0  0  0  0  0  0  0  # atno 7494 bound_to 7460
  241.3672    1.9527   32.7035 H   0  0  0  0  0  0  0  0  0  0  0  0  # atno 7528 bound_to 7515
  248.0181   -3.4544   36.3398 H   0  0  0  0  0  0  0  0  0  0  0  0  # atno 10118 bound_to 10098
  250.6213   -3.5403   39.9731 H   0  0  0  0  0  0  0  0  0  0  0  0  # atno 10154 bound_to 10134
  253.9072   13.2305   41.2735 H   0  0  0  0  0  0  0  0  0  0  0  0  # atno 11438 bound_to 11418
  253.7560   10.2547   42.4744 H   0  0  0  0  0  0  0  0  0  0  0  0  # atno 11499 bound_to 11466
  255.9078    6.4805   41.5282 H   0  0  0  0  0  0  0  0  0  0  0  0  # atno 11572 bound_to 11531
  258.4575    5.5307   41.5997 H   0  0  0  0  0  0  0  0  0  0  0  0  # atno 11648 bound_to 11607
  256.5430    9.5563   35.1293 H   0  0  0  0  0  0  0  0  0  0  0  0  # atno 17002 bound_to 16966
  254.0972    3.5176   38.0580 H   0  0  0  0  0  0  0  0  0  0  0  0  # atno 17198 bound_to 17178
  252.1300    5.4263   40.3120 H   0  0  0  0  0  0  0  0  0  0  0  0  # atno 17258 bound_to 17224
  250.6182    6.6767   43.6785 H   0  0  0  0  0  0  0  0  0  0  0  0  # atno 17306 bound_to 17285
  250.1583    8.5257   44.9933 H   0  0  0  0  0  0  0  0  0  0  0  0  # atno 17361 bound_to 17335
  249.6836    2.1835   44.8170 H   0  0  0  0  0  0  0  0  0  0  0  0  # atno 18250 bound_to 18212
  250.3283    1.0473   41.4126 H   0  0  0  0  0  0  0  0  0  0  0  0  # atno 18298 bound_to 18277
  253.2524   -1.7431   39.1189 H   0  0  0  0  0  0  0  0  0  0  0  0  # atno 18302 bound_to 18282
  251.2225   -0.3359   37.7165 H   0  0  0  0  0  0  0  0  0  0  0  0  # atno 18328 bound_to 18315
  250.7016   -1.2084   34.5522 H   0  0  0  0  0  0  0  0  0  0  0  0  # atno 18417 bound_to 18373
  252.0047    0.7720   30.7584 H   0  0  0  0  0  0  0  0  0  0  0  0  # atno 18502 bound_to 18463
  254.2798    7.8994   34.1402 H   0  0  0  0  0  0  0  0  0  0  0  0  # atno 18510 bound_to 18474
  250.5182    4.4216   29.6124 H   0  0  0  0  0  0  0  0  0  0  0  0  # atno 18570 bound_to 18535
  252.5596   21.5651   32.4280 H   0  0  0  0  0  0  0  0  0  0  0  0  # atno 19310 bound_to 19290
  243.3247   13.3795   39.5814 H   0  0  0  0  0  0  0  0  0  0  0  0  # atno 26091 bound_to 26055
  242.8764   19.5852   31.1622 H   0  0  0  0  0  0  0  0  0  0  0  0  # atno 27195 bound_to 27136
  239.1996   19.2471   33.5780 H   0  0  0  0  0  0  0  0  0  0  0  0  # atno 27199 bound_to 27138
  249.0791   22.7680   35.2646 LP  0  0  0  0  0  0  0  0  0  0  0  0  # atno 27200 bound_to 684 
  249.7647   24.3564   35.3465 LP  0  0  0  0  0  0  0  0  0  0  0  0  # atno 27201 bound_to 684 
  238.4439   19.7470   38.6787 LP  0  0  0  0  0  0  0  0  0  0  0  0  # atno 27202 bound_to 2531
  240.1147   16.1269   39.5912 LP  0  0  0  0  0  0  0  0  0  0  0  0  # atno 27203 bound_to 2534
  239.7644   16.4825   41.2497 LP  0  0  0  0  0  0  0  0  0  0  0  0  # atno 27204 bound_to 2534
  239.1697   19.7864   40.5698 LP  0  0  0  0  0  0  0  0  0  0  0  0  # atno 27205 bound_to 2605
  241.7059   13.3227   39.7330 LP  0  0  0  0  0  0  0  0  0  0  0  0  # atno 27209 bound_to 26055
  242.5873   11.9520   39.8370 LP  0  0  0  0  0  0  0  0  0  0  0  0  # atno 27210 bound_to 26055
  244.1591   19.1157   32.0473 LP  0  0  0  0  0  0  0  0  0  0  0  0  # atno 27213 bound_to 27136
  243.4522   20.5601   32.3314 LP  0  0  0  0  0  0  0  0  0  0  0  0  # atno 27214 bound_to 27136
  245.0070   25.4211   35.1478 LP  0  0  0  0  0  0  0  0  0  0  0  0  # atno 27215 bound_to 681 
  241.5805    8.5432   34.5017 LP  0  0  0  0  0  0  0  0  0  0  0  0  # atno 27226 bound_to 7339
  241.5901    7.0663   33.5968 LP  0  0  0  0  0  0  0  0  0  0  0  0  # atno 27227 bound_to 7339
  240.4701    6.4616   36.1677 LP  0  0  0  0  0  0  0  0  0  0  0  0  # atno 27228 bound_to 7417
  241.6260    5.3307   32.5184 LP  0  0  0  0  0  0  0  0  0  0  0  0  # atno 27229 bound_to 7460
  242.7769    2.5677   31.8706 LP  0  0  0  0  0  0  0  0  0  0  0  0  # atno 27230 bound_to 7515
  251.4740    2.8608   38.0929 LP  0  0  0  0  0  0  0  0  0  0  0  0  # atno 27232 bound_to 17131
  252.4870    1.7858   37.1883 LP  0  0  0  0  0  0  0  0  0  0  0  0  # atno 27233 bound_to 17131
  253.4649    5.1337   38.2578 LP  0  0  0  0  0  0  0  0  0  0  0  0  # atno 27234 bound_to 17178
  251.0273    4.2811   41.0437 LP  0  0  0  0  0  0  0  0  0  0  0  0  # atno 27235 bound_to 17224
  250.2554    2.9709   40.7912 LP  0  0  0  0  0  0  0  0  0  0  0  0  # atno 27236 bound_to 18215
  251.6894    2.7017   41.7246 LP  0  0  0  0  0  0  0  0  0  0  0  0  # atno 27237 bound_to 18215
  250.1607   -0.6734   41.1630 LP  0  0  0  0  0  0  0  0  0  0  0  0  # atno 27238 bound_to 18277
  250.4300   -2.1691   39.6253 LP  0  0  0  0  0  0  0  0  0  0  0  0  # atno 27239 bound_to 18280
  249.2376   -2.1003   38.3710 LP  0  0  0  0  0  0  0  0  0  0  0  0  # atno 27240 bound_to 18280
  249.8065    0.6876   37.6098 LP  0  0  0  0  0  0  0  0  0  0  0  0  # atno 27241 bound_to 18315
  252.5083   -0.8390   36.1497 LP  0  0  0  0  0  0  0  0  0  0  0  0  # atno 27242 bound_to 18318
  252.6055   -1.6759   34.6364 LP  0  0  0  0  0  0  0  0  0  0  0  0  # atno 27243 bound_to 18318
  249.5895   -0.0456   33.8780 LP  0  0  0  0  0  0  0  0  0  0  0  0  # atno 27244 bound_to 18373
  249.1324    1.1598   31.5031 LP  0  0  0  0  0  0  0  0  0  0  0  0  # atno 27245 bound_to 18376
  249.5739    2.0868   32.8980 LP  0  0  0  0  0  0  0  0  0  0  0  0  # atno 27246 bound_to 18376
  251.9715    1.6142   32.2943 LP  0  0  0  0  0  0  0  0  0  0  0  0  # atno 27247 bound_to 18463
  249.7739    2.8404   29.5856 LP  0  0  0  0  0  0  0  0  0  0  0  0  # atno 27248 bound_to 18535
  253.4363    6.2012   42.1386 LP  0  0  0  0  0  0  0  0  0  0  0  0  # atno 27253 bound_to 17181
  254.3046    6.1259   40.6418 LP  0  0  0  0  0  0  0  0  0  0  0  0  # atno 27254 bound_to 17181
  257.2049    3.3429   37.6857 LP  0  0  0  0  0  0  0  0  0  0  0  0  # atno 27255 bound_to 17058
  256.4522    4.5918   36.7510 LP  0  0  0  0  0  0  0  0  0  0  0  0  # atno 27256 bound_to 17058
  249.7444    4.5535   43.5561 LP  0  0  0  0  0  0  0  0  0  0  0  0  # atno 27257 bound_to 17227
  251.2979    4.3819   44.3026 LP  0  0  0  0  0  0  0  0  0  0  0  0  # atno 27258 bound_to 17227
  255.5399    8.1551   33.1429 LP  0  0  0  0  0  0  0  0  0  0  0  0  # atno 27259 bound_to 18474
  255.6563    7.0560   34.3450 LP  0  0  0  0  0  0  0  0  0  0  0  0  # atno 27260 bound_to 18474
  252.1887    7.4063   43.4593 LP  0  0  0  0  0  0  0  0  0  0  0  0  # atno 27261 bound_to 17285
  251.0789    2.5119   43.8191 LP  0  0  0  0  0  0  0  0  0  0  0  0  # atno 27262 bound_to 18212
  251.9370   -1.7701   40.0759 LP  0  0  0  0  0  0  0  0  0  0  0  0  # atno 27263 bound_to 18282
  253.3986   -1.3986   40.7022 LP  0  0  0  0  0  0  0  0  0  0  0  0  # atno 27264 bound_to 18282
  247.0496   -4.7425   36.1141 LP  0  0  0  0  0  0  0  0  0  0  0  0  # atno 27265 bound_to 10098
  248.6622   -4.8821   35.8980 LP  0  0  0  0  0  0  0  0  0  0  0  0  # atno 27266 bound_to 10098
  249.0717   -1.4404   42.4311 LP  0  0  0  0  0  0  0  0  0  0  0  0  # atno 27267 bound_to 10137
  250.6028   -1.7641   41.6886 LP  0  0  0  0  0  0  0  0  0  0  0  0  # atno 27268 bound_to 10137
  251.9410    9.1405   43.7698 LP  0  0  0  0  0  0  0  0  0  0  0  0  # atno 27269 bound_to 11416
  251.9650    9.5699   42.0920 LP  0  0  0  0  0  0  0  0  0  0  0  0  # atno 27270 bound_to 11416
  257.0117    9.5678   36.6875 LP  0  0  0  0  0  0  0  0  0  0  0  0  # atno 27271 bound_to 16966
  255.9003    8.4871   36.1741 LP  0  0  0  0  0  0  0  0  0  0  0  0  # atno 27272 bound_to 16966
  255.3262   10.0975   43.2334 LP  0  0  0  0  0  0  0  0  0  0  0  0  # atno 27273 bound_to 11466
  255.4483    6.8731   43.1675 LP  0  0  0  0  0  0  0  0  0  0  0  0  # atno 27274 bound_to 11531
  258.1754    7.0305   37.9100 LP  0  0  0  0  0  0  0  0  0  0  0  0  # atno 27275 bound_to 11610
  257.7404    8.6618   38.2967 LP  0  0  0  0  0  0  0  0  0  0  0  0  # atno 27276 bound_to 11610
  257.5244    6.8163   40.8721 LP  0  0  0  0  0  0  0  0  0  0  0  0  # atno 27279 bound_to 11607
  254.4999   11.7892   41.7413 LP  0  0  0  0  0  0  0  0  0  0  0  0  # atno 27282 bound_to 11418
  255.1296   13.1694   42.3457 LP  0  0  0  0  0  0  0  0  0  0  0  0  # atno 27283 bound_to 11418
  253.1136   11.8350   29.1274 LP  0  0  0  0  0  0  0  0  0  0  0  0  # atno 27284 bound_to 18693
  251.9849   11.5263   30.4044 LP  0  0  0  0  0  0  0  0  0  0  0  0  # atno 27285 bound_to 18693

> <Gold.Score>
     Fitness  S(hb_ext) S(vdw_ext)  S(hb_int)    S(int)      intcor
     28.57       0.85      20.87       0.00      -0.98      -0.77

> <Gold.Goldscore.Fitness>
28.5745

> <Gold.Goldscore.Internal.Vdw>
-1.0811

> <Gold.Goldscore.Internal.Torsion>
-0.6669

> <Gold.Goldscore.External.Vdw>
20.8749

> <Gold.Goldscore.Internal.HBond>
0.0000

> <Gold.Goldscore.External.HBond>
0.8502

> <Gold.Goldscore.Internal.Correction>
-0.7693

> <Gold.Goldscore.Hbonds>
donor molecule, donor type, donor heavy atom, donor atom, acceptor molecule, acceptor atom, score
      P1  H 18474 18510       L1    17  0.43

> <Gold.Goldscore.Internal.Vdw.Weighted>
-1.0811

> <Gold.Goldscore.Internal.Torsion.Weighted>
-0.6669

> <Gold.Goldscore.External.Vdw.Weighted>
28.7029

> <Gold.Goldscore.Internal.HBond.Weighted>
0.0000

> <Gold.Goldscore.External.HBond.Weighted>
0.8502

> <Gold.Goldscore.Internal.Correction.Weighted>
-0.7693

> <Gold.Rescore>
     Score     S(PLP)   S(hbond)     S(cho)   S(metal)  DE(clash)   DE(tors)     intcor
     17.51     -17.02       1.00       0.00       0.00       1.21       0.65       ----

> <Gold.PLP.Fitness>
17.5065

> <Gold.PLP.PLP>
-17.0196

> <Gold.PLP.part.hbond>
-2.0000

> <Gold.PLP.part.metal>
0.0000

> <Gold.PLP.part.buried>
2.7075

> <Gold.PLP.part.nonpolar>
-25.7154

> <Gold.PLP.part.repulsive>
6.5654

> <Gold.PLP.ligand.clash>
1.2066

> <Gold.PLP.ligand.torsion>
0.6532

> <Gold.PLP.Chemscore.Hbond>
1.0000

> <Gold.PLP.Chemscore.CHOScore>
0.0000

> <Gold.PLP.Chemscore.Metal>
0.0000

> <Gold.PLP.Chemscore.Internal.Correction>
   9.000000E+99

