#       Name:                CT1002167954
#       Creating user name   hitesit
#       Creation time:       Sun Apr 16 23:04:47 2023


#       File generated by GOLD software.
#

@<TRIPOS>MOLECULE
CT1002167954|ligand_prepared|mol2|1|dock2
    29    30     1
SMALL
NO_CHARGES


@<TRIPOS>ATOM
      1 C1         250.4547   7.7566  35.9121 C.3            1 RES1               0.0000
      2 C2         249.4783   6.5645  35.8451 C.ar           1 RES1               0.0000
      3 C3         249.6572   8.9878  35.4920 C.2            1 RES1               0.0000
      4 C4         250.9678   7.8076  37.3469 C.2            1 RES1               0.0000
      5 C5         251.6753   7.6179  34.9728 C.3            1 RES1               0.0000
      6 C6         249.7331   5.4863  35.0030 C.ar           1 RES1               0.0000
      7 C7         248.3221   6.5277  36.6200 C.ar           1 RES1               0.0000
      8 N8         249.3018   9.8732  36.4665 N.am           1 RES1               0.0000
      9 O9         249.3114   9.1590  34.3295 O.2            1 RES1               0.0000
     10 N10        250.6294   8.8931  38.1117 N.am           1 RES1               0.0000
     11 O11        251.6483   6.9095  37.8273 O.2            1 RES1               0.0000
     12 C12        252.5859   8.8357  34.9669 C.3            1 RES1               0.0000
     13 C13        248.8651   4.4089  34.9399 C.ar           1 RES1               0.0000
     14 C14        247.4553   5.4493  36.5552 C.ar           1 RES1               0.0000
     15 C15        249.7942   9.9134  37.7462 C.2            1 RES1               0.0000
     16 C16        247.7260   4.3894  35.7162 C.ar           1 RES1               0.0000
     17 O17        249.4939  10.8272  38.5090 O.2            1 RES1               0.0000
     18 H18        252.2595   6.7417  35.2799 H              1 RES1               0.0000
     19 H19        251.3165   7.4405  33.9514 H              1 RES1               0.0000
     20 H20        250.6232   5.4851  34.3828 H              1 RES1               0.0000
     21 H21        248.0883   7.3509  37.2865 H              1 RES1               0.0000
     22 H22        248.6055  10.5698  36.2211 H              1 RES1               0.0000
     23 H23        251.0381   8.9455  39.0393 H              1 RES1               0.0000
     24 H24        253.4259   8.6860  34.2919 H              1 RES1               0.0000
     25 H25        252.0437   9.7212  34.6419 H              1 RES1               0.0000
     26 H26        252.9810   9.0266  35.9625 H              1 RES1               0.0000
     27 H27        249.0820   3.5778  34.2769 H              1 RES1               0.0000
     28 H28        246.5596   5.4385  37.1676 H              1 RES1               0.0000
     29 H29        247.0464   3.5450  35.6669 H              1 RES1               0.0000
@<TRIPOS>BOND
    1    1    2 1     
    2    1    3 1     
    3    1    4 1     
    4    1    5 1     
    5    2    6 ar    
    6    2    7 ar    
    7    3    8 1     
    8    3    9 2     
    9    4   10 1     
   10    4   11 2     
   11    5   12 1     
   12    5   18 1     
   13    5   19 1     
   14    6   13 ar    
   15    6   20 1     
   16    7   14 ar    
   17    7   21 1     
   18    8   15 1     
   19    8   22 1     
   20   10   15 1     
   21   10   23 1     
   22   12   24 1     
   23   12   25 1     
   24   12   26 1     
   25   13   16 ar    
   26   13   27 1     
   27   14   16 ar    
   28   14   28 1     
   29   15   17 2     
   30   16   29 1     
@<TRIPOS>SUBSTRUCTURE
      1 RES1           1
@<TRIPOS>SET
DONOR_HYDROGENS      STATIC     ATOMS    <user>   **** ""
2 22 23
ATOM$RED        STATIC     ATOMS    COLORGROUP SYSTEM
2 22 23
@<TRIPOS>COMMENT
> <Gold.Version>
2022.3.0

> <Gold.Id.Protein>
unknown|4v3u_clean|pdb

> <Gold.Protein.RotatedTorsions>
[  576  535  534  533 ] final -149.38 input   59.97 | X-H torsion
[ 2566 2531 2532 2533 ] final  178.75 input  112.83 | X-H torsion
[ 2636 2605 2606 2607 ] final   74.60 input   41.41 | X-H torsion
[ 26091 26055 26054 26052 ] final  168.67 input   60.03 | X-H torsion
[ 27195 27136 27135 27131 ] final   96.29 input   60.01 | X-H torsion
[  728  681  682  683 ] final    1.78 input  102.19 | X-H torsion
[ 7435 7417 7418 7419 ] final  158.23 input   81.33 | X-H torsion
[ 7494 7460 7461 7462 ] final  -39.00 input  103.22 | X-H torsion
[ 7528 7515 7516 7517 ] final -138.45 input   88.53 | X-H torsion
[ 17198 17178 17179 17180 ] final   88.55 input   47.40 | X-H torsion
[ 17258 17224 17225 17226 ] final -164.56 input  102.98 | X-H torsion
[ 18298 18277 18278 18279 ] final  -27.92 input   30.52 | X-H torsion
[ 18328 18315 18316 18317 ] final  101.10 input   53.77 | X-H torsion
[ 18417 18373 18374 18375 ] final    0.06 input   42.60 | X-H torsion
[ 18502 18463 18464 18465 ] final  175.81 input  104.04 | X-H torsion
[ 18570 18535 18536 18537 ] final -113.93 input   89.36 | X-H torsion
[ 18510 18474 18473 18471 ] final  161.60 input   60.01 | X-H torsion
[ 17306 17285 17286 17287 ] final  110.19 input   49.80 | X-H torsion
[ 18250 18212 18213 18214 ] final   48.09 input   46.53 | X-H torsion
[ 18302 18282 18281 18278 ] final  136.04 input   59.98 | X-H torsion
[ 10118 10098 10097 10094 ] final   87.11 input   59.98 | X-H torsion
[ 17002 16966 16965 16963 ] final  -45.47 input   59.99 | X-H torsion
[ 11499 11466 11467 11468 ] final   57.26 input   46.07 | X-H torsion
[ 11572 11531 11532 11533 ] final  -73.61 input  118.20 | X-H torsion
[ 11648 11607 11608 11609 ] final  176.09 input   50.96 | X-H torsion
[ 11438 11418 11417 11414 ] final  135.27 input   60.01 | X-H torsion
[ 27199 27138 27137 27135 ] final    3.19 input   60.02 | X-H torsion
[ 19310 19290 19289 19286 ] final   -1.85 input   60.00 | X-H torsion
[ 10154 10134 10135 10136 ] final  -58.50 input   25.69 | X-H torsion
[ 17361 17335 17336 17337 ] final   -3.68 input   65.66 | X-H torsion
[ 27200  684  683  682 ] final  102.59 input    0.00 | X-H torsion
[ 27203 2534 2533 2532 ] final   11.83 input    0.00 | X-H torsion
[ 27226 7339 7338 7337 ] final  -85.33 input    0.00 | X-H torsion
[ 27232 17131 17130 17129 ] final  -45.92 input    0.00 | X-H torsion
[ 27236 18215 18214 18213 ] final  -57.41 input    0.00 | X-H torsion
[ 27239 18280 18279 18278 ] final   79.12 input    0.00 | X-H torsion
[ 27242 18318 18317 18316 ] final -138.65 input    0.00 | X-H torsion
[ 27245 18376 18375 18374 ] final  -52.22 input   -0.00 | X-H torsion
[ 27253 17181 17180 17179 ] final   95.81 input    0.00 | X-H torsion
[ 27255 17058 17057 17056 ] final -116.50 input    0.00 | X-H torsion
[ 27257 17227 17226 17225 ] final  159.44 input   -0.00 | X-H torsion
[ 27267 10137 10136 10135 ] final  110.02 input    0.00 | X-H torsion
[ 27269 11416 11415 11414 ] final -154.68 input    0.00 | X-H torsion
[ 27275 11610 11609 11608 ] final -141.02 input    0.00 | X-H torsion
[ 27284 18693 18692 18691 ] final  122.27 input    0.00 | X-H torsion

> <Gold.Protein.ActiveResidues>
 LYS309  TRP311  GLU314  MET341  HIS342  TRP414  ALA417  ARG419  CYS420  VAL421 
 GLY422  ARG423  SER462  ALA463  SER482  GLN483  LEU484  ILE485  ARG486  ALA502 
 TRP566  TYR567  LEU569  PRO570  ALA571  VAL572  SER573  ASN574  MET575  PHE589 
 SER590  GLY591  TRP592  TYR593  MET594  GLU597  ILE598  ARG601  ASP602  ASP605 
 SER607  ARG608  TRP683  HIS697  GLU699  TYR711  HEM750  H4B760 

> <Gold.Protein.RotatedAtoms>
  247.3734   25.4975   41.8384 H   0  0  0  0  0  0  0  0  0  0  0  0  # atno 576  bound_to 535 
  245.9607   24.6305   41.8689 H   0  0  0  0  0  0  0  0  0  0  0  0  # atno 577  bound_to 535 
  247.2393   24.0999   40.9580 H   0  0  0  0  0  0  0  0  0  0  0  0  # atno 578  bound_to 535 
  245.7707   25.4465   33.7638 H   0  0  0  0  0  0  0  0  0  0  0  0  # atno 728  bound_to 681 
  239.4581   20.0213   37.3085 H   0  0  0  0  0  0  0  0  0  0  0  0  # atno 2566 bound_to 2531
  239.8737   19.8286   40.6954 H   0  0  0  0  0  0  0  0  0  0  0  0  # atno 2636 bound_to 2605
  240.3046    6.2057   36.3416 H   0  0  0  0  0  0  0  0  0  0  0  0  # atno 7435 bound_to 7417
  241.3309    3.8409   33.3780 H   0  0  0  0  0  0  0  0  0  0  0  0  # atno 7494 bound_to 7460
  242.3600    2.3587   31.4447 H   0  0  0  0  0  0  0  0  0  0  0  0  # atno 7528 bound_to 7515
  248.0158   -5.2560   35.8764 H   0  0  0  0  0  0  0  0  0  0  0  0  # atno 10118 bound_to 10098
  249.0773   -3.8752   40.0989 H   0  0  0  0  0  0  0  0  0  0  0  0  # atno 10154 bound_to 10134
  253.8246   12.9583   41.1910 H   0  0  0  0  0  0  0  0  0  0  0  0  # atno 11438 bound_to 11418
  255.3570   10.3972   42.5407 H   0  0  0  0  0  0  0  0  0  0  0  0  # atno 11499 bound_to 11466
  255.9682    7.4243   42.7279 H   0  0  0  0  0  0  0  0  0  0  0  0  # atno 11572 bound_to 11531
  258.4150    5.4609   41.5109 H   0  0  0  0  0  0  0  0  0  0  0  0  # atno 11648 bound_to 11607
  255.9113    8.7509   35.4109 H   0  0  0  0  0  0  0  0  0  0  0  0  # atno 17002 bound_to 16966
  254.5922    4.4488   38.4796 H   0  0  0  0  0  0  0  0  0  0  0  0  # atno 17198 bound_to 17178
  251.5475    5.3824   39.9761 H   0  0  0  0  0  0  0  0  0  0  0  0  # atno 17258 bound_to 17224
  252.2533    7.2362   43.4053 H   0  0  0  0  0  0  0  0  0  0  0  0  # atno 17306 bound_to 17285
  249.8791    7.9238   45.5860 H   0  0  0  0  0  0  0  0  0  0  0  0  # atno 17361 bound_to 17335
  250.1897    2.9825   43.7327 H   0  0  0  0  0  0  0  0  0  0  0  0  # atno 18250 bound_to 18212
  249.4861   -0.0586   40.9007 H   0  0  0  0  0  0  0  0  0  0  0  0  # atno 18298 bound_to 18277
  253.5406   -1.6545   39.3176 H   0  0  0  0  0  0  0  0  0  0  0  0  # atno 18302 bound_to 18282
  249.9667    0.8445   37.4022 H   0  0  0  0  0  0  0  0  0  0  0  0  # atno 18328 bound_to 18315
  249.6363    0.0520   33.9712 H   0  0  0  0  0  0  0  0  0  0  0  0  # atno 18417 bound_to 18373
  252.5301    1.6348   32.1025 H   0  0  0  0  0  0  0  0  0  0  0  0  # atno 18502 bound_to 18463
  255.7991    7.1072   34.2039 H   0  0  0  0  0  0  0  0  0  0  0  0  # atno 18510 bound_to 18474
  250.3328    2.7984   29.3362 H   0  0  0  0  0  0  0  0  0  0  0  0  # atno 18570 bound_to 18535
  253.0682   21.3264   32.7332 H   0  0  0  0  0  0  0  0  0  0  0  0  # atno 19310 bound_to 19290
  241.6219   13.0488   39.7801 H   0  0  0  0  0  0  0  0  0  0  0  0  # atno 26091 bound_to 26055
  242.7614   19.9632   31.3017 H   0  0  0  0  0  0  0  0  0  0  0  0  # atno 27195 bound_to 27136
  240.6428   18.3667   34.3665 H   0  0  0  0  0  0  0  0  0  0  0  0  # atno 27199 bound_to 27138
  249.4281   22.8933   34.7555 LP  0  0  0  0  0  0  0  0  0  0  0  0  # atno 27200 bound_to 684 
  249.4157   24.2311   35.8555 LP  0  0  0  0  0  0  0  0  0  0  0  0  # atno 27201 bound_to 684 
  238.5898   19.9179   38.8215 LP  0  0  0  0  0  0  0  0  0  0  0  0  # atno 27202 bound_to 2531
  240.3475   16.1561   39.6712 LP  0  0  0  0  0  0  0  0  0  0  0  0  # atno 27203 bound_to 2534
  239.5315   16.4533   41.1697 LP  0  0  0  0  0  0  0  0  0  0  0  0  # atno 27204 bound_to 2534
  239.2825   18.2575   40.2077 LP  0  0  0  0  0  0  0  0  0  0  0  0  # atno 27205 bound_to 2605
  242.8714   12.0072   39.8038 LP  0  0  0  0  0  0  0  0  0  0  0  0  # atno 27209 bound_to 26055
  243.1373   13.6007   39.5660 LP  0  0  0  0  0  0  0  0  0  0  0  0  # atno 27210 bound_to 26055
  243.9471   18.9342   31.7311 LP  0  0  0  0  0  0  0  0  0  0  0  0  # atno 27213 bound_to 27136
  243.7801   20.3612   32.5071 LP  0  0  0  0  0  0  0  0  0  0  0  0  # atno 27214 bound_to 27136
  244.6563   24.8121   34.9448 LP  0  0  0  0  0  0  0  0  0  0  0  0  # atno 27215 bound_to 681 
  241.0565    7.7567   33.3651 LP  0  0  0  0  0  0  0  0  0  0  0  0  # atno 27226 bound_to 7339
  242.1141    7.8528   34.7334 LP  0  0  0  0  0  0  0  0  0  0  0  0  # atno 27227 bound_to 7339
  239.5181    6.2219   34.7838 LP  0  0  0  0  0  0  0  0  0  0  0  0  # atno 27228 bound_to 7417
  241.7524    5.2962   32.5017 LP  0  0  0  0  0  0  0  0  0  0  0  0  # atno 27229 bound_to 7460
  241.8112    2.1729   33.0951 LP  0  0  0  0  0  0  0  0  0  0  0  0  # atno 27230 bound_to 7515
  251.5930    2.6590   36.9427 LP  0  0  0  0  0  0  0  0  0  0  0  0  # atno 27232 bound_to 17131
  252.3681    1.9876   38.3386 LP  0  0  0  0  0  0  0  0  0  0  0  0  # atno 27233 bound_to 17131
  252.9804    4.2224   37.8452 LP  0  0  0  0  0  0  0  0  0  0  0  0  # atno 27234 bound_to 17178
  251.5914    4.3237   41.3690 LP  0  0  0  0  0  0  0  0  0  0  0  0  # atno 27235 bound_to 17224
  250.1842    3.1589   41.4150 LP  0  0  0  0  0  0  0  0  0  0  0  0  # atno 27236 bound_to 18215
  251.7606    2.5137   41.1008 LP  0  0  0  0  0  0  0  0  0  0  0  0  # atno 27237 bound_to 18215
  250.9856    0.4099   41.6643 LP  0  0  0  0  0  0  0  0  0  0  0  0  # atno 27238 bound_to 18277
  249.1253   -1.7648   39.3317 LP  0  0  0  0  0  0  0  0  0  0  0  0  # atno 27239 bound_to 18280
  250.5423   -2.5046   38.6646 LP  0  0  0  0  0  0  0  0  0  0  0  0  # atno 27240 bound_to 18280
  251.0219   -0.4549   37.9140 LP  0  0  0  0  0  0  0  0  0  0  0  0  # atno 27241 bound_to 18315
  252.8171   -0.5972   34.8968 LP  0  0  0  0  0  0  0  0  0  0  0  0  # atno 27242 bound_to 18318
  252.2966   -1.9178   35.8893 LP  0  0  0  0  0  0  0  0  0  0  0  0  # atno 27243 bound_to 18318
  250.6416   -1.2903   34.4518 LP  0  0  0  0  0  0  0  0  0  0  0  0  # atno 27244 bound_to 18373
  249.0618    0.8294   32.0141 LP  0  0  0  0  0  0  0  0  0  0  0  0  # atno 27245 bound_to 18376
  249.6446    2.4172   32.3869 LP  0  0  0  0  0  0  0  0  0  0  0  0  # atno 27246 bound_to 18376
  251.4660    0.7841   31.0010 LP  0  0  0  0  0  0  0  0  0  0  0  0  # atno 27247 bound_to 18463
  249.9548    4.4241   29.8551 LP  0  0  0  0  0  0  0  0  0  0  0  0  # atno 27248 bound_to 18535
  253.7607    6.6779   40.7022 LP  0  0  0  0  0  0  0  0  0  0  0  0  # atno 27253 bound_to 17181
  253.9803    5.6492   42.0782 LP  0  0  0  0  0  0  0  0  0  0  0  0  # atno 27254 bound_to 17181
  256.2671    3.7898   37.8533 LP  0  0  0  0  0  0  0  0  0  0  0  0  # atno 27255 bound_to 17058
  257.3900    4.1449   36.5834 LP  0  0  0  0  0  0  0  0  0  0  0  0  # atno 27256 bound_to 17058
  251.0383    4.5946   44.6123 LP  0  0  0  0  0  0  0  0  0  0  0  0  # atno 27257 bound_to 17227
  250.0040    4.3408   43.2464 LP  0  0  0  0  0  0  0  0  0  0  0  0  # atno 27258 bound_to 17227
  254.3100    7.7579   34.2886 LP  0  0  0  0  0  0  0  0  0  0  0  0  # atno 27259 bound_to 18474
  255.3554    8.2513   33.1352 LP  0  0  0  0  0  0  0  0  0  0  0  0  # atno 27260 bound_to 18474
  250.5805    6.8560   43.7280 LP  0  0  0  0  0  0  0  0  0  0  0  0  # atno 27261 bound_to 17285
  250.5823    1.7281   44.8828 LP  0  0  0  0  0  0  0  0  0  0  0  0  # atno 27262 bound_to 18212
  251.9748   -1.8363   39.7202 LP  0  0  0  0  0  0  0  0  0  0  0  0  # atno 27263 bound_to 18282
  253.0705   -1.4216   40.8577 LP  0  0  0  0  0  0  0  0  0  0  0  0  # atno 27264 bound_to 18282
  248.6636   -3.7939   36.1778 LP  0  0  0  0  0  0  0  0  0  0  0  0  # atno 27265 bound_to 10098
  247.0505   -4.0165   36.3008 LP  0  0  0  0  0  0  0  0  0  0  0  0  # atno 27266 bound_to 10098
  248.9749   -1.5663   42.1307 LP  0  0  0  0  0  0  0  0  0  0  0  0  # atno 27267 bound_to 10137
  250.6996   -1.6382   41.9890 LP  0  0  0  0  0  0  0  0  0  0  0  0  # atno 27268 bound_to 10137
  252.3717    8.6068   42.8102 LP  0  0  0  0  0  0  0  0  0  0  0  0  # atno 27269 bound_to 11416
  251.5343   10.1036   43.0516 LP  0  0  0  0  0  0  0  0  0  0  0  0  # atno 27270 bound_to 11416
  257.0189    9.9132   35.6756 LP  0  0  0  0  0  0  0  0  0  0  0  0  # atno 27271 bound_to 16966
  256.5295    8.9530   36.9024 LP  0  0  0  0  0  0  0  0  0  0  0  0  # atno 27272 bound_to 16966
  253.7822    9.9601   43.1695 LP  0  0  0  0  0  0  0  0  0  0  0  0  # atno 27273 bound_to 11466
  255.3891    5.9489   41.9928 LP  0  0  0  0  0  0  0  0  0  0  0  0  # atno 27274 bound_to 11531
  258.4428    8.3372   37.5801 LP  0  0  0  0  0  0  0  0  0  0  0  0  # atno 27275 bound_to 11610
  257.4731    7.3552   38.6267 LP  0  0  0  0  0  0  0  0  0  0  0  0  # atno 27276 bound_to 11610
  257.5660    6.8847   40.9590 LP  0  0  0  0  0  0  0  0  0  0  0  0  # atno 27279 bound_to 11607
  254.7216   11.8247   41.9380 LP  0  0  0  0  0  0  0  0  0  0  0  0  # atno 27282 bound_to 11418
  254.9912   13.4081   42.2322 LP  0  0  0  0  0  0  0  0  0  0  0  0  # atno 27283 bound_to 11418
  253.1535   11.2831   30.2422 LP  0  0  0  0  0  0  0  0  0  0  0  0  # atno 27284 bound_to 18693
  251.9450   12.0782   29.2896 LP  0  0  0  0  0  0  0  0  0  0  0  0  # atno 27285 bound_to 18693

> <Gold.Score>
     Fitness  S(hb_ext) S(vdw_ext)  S(hb_int)    S(int)      intcor
     41.44       1.92      29.55       0.00      -1.11      -0.79

> <Gold.Goldscore.Fitness>
41.4383

> <Gold.Goldscore.Internal.Vdw>
-1.4961

> <Gold.Goldscore.Internal.Torsion>
-0.3955

> <Gold.Goldscore.External.Vdw>
29.5475

> <Gold.Goldscore.Internal.HBond>
0.0000

> <Gold.Goldscore.External.HBond>
1.9170

> <Gold.Goldscore.Internal.Correction>
-0.7850

> <Gold.Goldscore.Hbonds>
donor molecule, donor type, donor heavy atom, donor atom, acceptor molecule, acceptor atom, score
      P1  H 17224 17258       L1    11  0.15
      L1  H     8    22       P1 26924  0.27

> <Gold.Goldscore.Internal.Vdw.Weighted>
-1.4961

> <Gold.Goldscore.Internal.Torsion.Weighted>
-0.3955

> <Gold.Goldscore.External.Vdw.Weighted>
40.6278

> <Gold.Goldscore.Internal.HBond.Weighted>
0.0000

> <Gold.Goldscore.External.HBond.Weighted>
1.9170

> <Gold.Goldscore.Internal.Correction.Weighted>
-0.7850

> <Gold.Rescore>
     Score     S(PLP)   S(hbond)     S(cho)   S(metal)  DE(clash)   DE(tors)     intcor
     35.55     -33.02       0.93       0.00       0.00       0.00       0.13       ----

> <Gold.PLP.Fitness>
35.5509

> <Gold.PLP.PLP>
-33.0225

> <Gold.PLP.part.hbond>
-1.1778

> <Gold.PLP.part.metal>
0.0000

> <Gold.PLP.part.buried>
5.0051

> <Gold.PLP.part.nonpolar>
-44.6871

> <Gold.PLP.part.repulsive>
6.0837

> <Gold.PLP.ligand.clash>
0.0000

> <Gold.PLP.ligand.torsion>
0.1252

> <Gold.PLP.Chemscore.Hbond>
0.9263

> <Gold.PLP.Chemscore.CHOScore>
0.0000

> <Gold.PLP.Chemscore.Metal>
0.0000

> <Gold.Chemscore.Hbonds>
donor molecule, donor type, donor heavy atom, donor atom, acceptor molecule, acceptor atom, score
      L1  H     8    22       P1 26924  0.91

> <Gold.PLP.Chemscore.Internal.Correction>
   9.000000E+99

