#       Name:                CT1002167954
#       Creating user name   hitesit
#       Creation time:       Sun Apr 16 23:04:48 2023


#       File generated by GOLD software.
#

@<TRIPOS>MOLECULE
CT1002167954|ligand_prepared|mol2|1|dock4
    29    30     1
SMALL
NO_CHARGES


@<TRIPOS>ATOM
      1 C1         249.9796  13.8158  35.5514 C.3            1 RES1               0.0000
      2 C2         250.2137  12.3492  35.1355 C.ar           1 RES1               0.0000
      3 C3         248.8036  14.3153  34.7172 C.2            1 RES1               0.0000
      4 C4         249.7137  13.7963  37.0526 C.2            1 RES1               0.0000
      5 C5         251.1926  14.7397  35.2931 C.3            1 RES1               0.0000
      6 C6         250.9152  12.0457  33.9725 C.ar           1 RES1               0.0000
      7 C7         249.7373  11.2908  35.9046 C.ar           1 RES1               0.0000
      8 N8         247.6042  14.4729  35.3468 N.am           1 RES1               0.0000
      9 O9         248.9173  14.5297  33.5167 O.2            1 RES1               0.0000
     10 N10        248.4683  14.1658  37.4889 N.am           1 RES1               0.0000
     11 O11        250.5661  13.4483  37.8604 O.2            1 RES1               0.0000
     12 C12        251.0797  16.1010  35.9611 C.3            1 RES1               0.0000
     13 C13        251.1351  10.7318  33.5936 C.ar           1 RES1               0.0000
     14 C14        249.9582   9.9775  35.5237 C.ar           1 RES1               0.0000
     15 C15        247.3921  14.4737  36.7021 C.2            1 RES1               0.0000
     16 C16        250.6573   9.6970  34.3690 C.ar           1 RES1               0.0000
     17 O17        246.2885  14.7432  37.1675 O.2            1 RES1               0.0000
     18 H18        252.0996  14.2417  35.6574 H              1 RES1               0.0000
     19 H19        251.3015  14.8853  34.2113 H              1 RES1               0.0000
     20 H20        251.2967  12.8469  33.3484 H              1 RES1               0.0000
     21 H21        249.1838  11.4878  36.8164 H              1 RES1               0.0000
     22 H22        246.7895  14.6020  34.7552 H              1 RES1               0.0000
     23 H23        248.3309  14.2160  38.4934 H              1 RES1               0.0000
     24 H24        251.9563  16.7092  35.7479 H              1 RES1               0.0000
     25 H25        250.2017  16.6347  35.6031 H              1 RES1               0.0000
     26 H26        250.9951  15.9951  37.0407 H              1 RES1               0.0000
     27 H27        251.6847  10.5164  32.6832 H              1 RES1               0.0000
     28 H28        249.5797   9.1662  36.1367 H              1 RES1               0.0000
     29 H29        250.8300   8.6678  34.0721 H              1 RES1               0.0000
@<TRIPOS>BOND
    1    1    2 1     
    2    1    3 1     
    3    1    4 1     
    4    1    5 1     
    5    2    6 ar    
    6    2    7 ar    
    7    3    8 1     
    8    3    9 2     
    9    4   10 1     
   10    4   11 2     
   11    5   12 1     
   12    5   18 1     
   13    5   19 1     
   14    6   13 ar    
   15    6   20 1     
   16    7   14 ar    
   17    7   21 1     
   18    8   15 1     
   19    8   22 1     
   20   10   15 1     
   21   10   23 1     
   22   12   24 1     
   23   12   25 1     
   24   12   26 1     
   25   13   16 ar    
   26   13   27 1     
   27   14   16 ar    
   28   14   28 1     
   29   15   17 2     
   30   16   29 1     
@<TRIPOS>SUBSTRUCTURE
      1 RES1           1
@<TRIPOS>SET
DONOR_HYDROGENS      STATIC     ATOMS    <user>   **** ""
2 22 23
ATOM$RED        STATIC     ATOMS    COLORGROUP SYSTEM
2 22 23
@<TRIPOS>COMMENT
> <Gold.Version>
2022.3.0

> <Gold.Id.Protein>
unknown|4v3u_clean|pdb

> <Gold.Protein.RotatedTorsions>
[  576  535  534  533 ] final  127.62 input   59.97 | X-H torsion
[ 2566 2531 2532 2533 ] final -121.94 input  112.83 | X-H torsion
[ 2636 2605 2606 2607 ] final  -76.59 input   41.41 | X-H torsion
[ 26091 26055 26054 26052 ] final  -24.60 input   60.03 | X-H torsion
[ 27195 27136 27135 27131 ] final    0.97 input   60.01 | X-H torsion
[  728  681  682  683 ] final -131.12 input  102.19 | X-H torsion
[ 7435 7417 7418 7419 ] final   84.04 input   81.33 | X-H torsion
[ 7494 7460 7461 7462 ] final  -69.59 input  103.22 | X-H torsion
[ 7528 7515 7516 7517 ] final  156.16 input   88.53 | X-H torsion
[ 17198 17178 17179 17180 ] final  120.42 input   47.40 | X-H torsion
[ 17258 17224 17225 17226 ] final  -26.17 input  102.98 | X-H torsion
[ 18298 18277 18278 18279 ] final  -31.14 input   30.52 | X-H torsion
[ 18328 18315 18316 18317 ] final -176.71 input   53.77 | X-H torsion
[ 18417 18373 18374 18375 ] final  119.64 input   42.60 | X-H torsion
[ 18502 18463 18464 18465 ] final -179.85 input  104.04 | X-H torsion
[ 18570 18535 18536 18537 ] final   19.20 input   89.36 | X-H torsion
[ 18510 18474 18473 18471 ] final    5.70 input   60.01 | X-H torsion
[ 17306 17285 17286 17287 ] final  165.26 input   49.80 | X-H torsion
[ 18250 18212 18213 18214 ] final -147.40 input   46.53 | X-H torsion
[ 18302 18282 18281 18278 ] final  155.89 input   59.98 | X-H torsion
[ 10118 10098 10097 10094 ] final -110.77 input   59.98 | X-H torsion
[ 17002 16966 16965 16963 ] final   58.57 input   59.99 | X-H torsion
[ 11499 11466 11467 11468 ] final  151.52 input   46.07 | X-H torsion
[ 11572 11531 11532 11533 ] final  -60.45 input  118.20 | X-H torsion
[ 11648 11607 11608 11609 ] final   19.94 input   50.96 | X-H torsion
[ 11438 11418 11417 11414 ] final  142.62 input   60.01 | X-H torsion
[ 27199 27138 27137 27135 ] final  -38.46 input   60.02 | X-H torsion
[ 19310 19290 19289 19286 ] final -113.23 input   60.00 | X-H torsion
[ 10154 10134 10135 10136 ] final -167.04 input   25.69 | X-H torsion
[ 17361 17335 17336 17337 ] final -165.05 input   65.66 | X-H torsion
[ 27200  684  683  682 ] final  104.04 input    0.00 | X-H torsion
[ 27203 2534 2533 2532 ] final   56.12 input    0.00 | X-H torsion
[ 27226 7339 7338 7337 ] final   60.40 input    0.00 | X-H torsion
[ 27232 17131 17130 17129 ] final  150.29 input    0.00 | X-H torsion
[ 27236 18215 18214 18213 ] final  -91.71 input    0.00 | X-H torsion
[ 27239 18280 18279 18278 ] final  -15.81 input    0.00 | X-H torsion
[ 27242 18318 18317 18316 ] final   98.12 input    0.00 | X-H torsion
[ 27245 18376 18375 18374 ] final  -59.36 input   -0.00 | X-H torsion
[ 27253 17181 17180 17179 ] final  -97.39 input    0.00 | X-H torsion
[ 27255 17058 17057 17056 ] final  -59.48 input    0.00 | X-H torsion
[ 27257 17227 17226 17225 ] final  -90.47 input   -0.00 | X-H torsion
[ 27267 10137 10136 10135 ] final -127.04 input    0.00 | X-H torsion
[ 27269 11416 11415 11414 ] final   30.39 input    0.00 | X-H torsion
[ 27275 11610 11609 11608 ] final  175.31 input    0.00 | X-H torsion
[ 27284 18693 18692 18691 ] final -145.38 input    0.00 | X-H torsion

> <Gold.Protein.ActiveResidues>
 LYS309  TRP311  GLU314  MET341  HIS342  TRP414  ALA417  ARG419  CYS420  VAL421 
 GLY422  ARG423  SER462  ALA463  SER482  GLN483  LEU484  ILE485  ARG486  ALA502 
 TRP566  TYR567  LEU569  PRO570  ALA571  VAL572  SER573  ASN574  MET575  PHE589 
 SER590  GLY591  TRP592  TYR593  MET594  GLU597  ILE598  ARG601  ASP602  ASP605 
 SER607  ARG608  TRP683  HIS697  GLU699  TYR711  HEM750  H4B760 

> <Gold.Protein.RotatedAtoms>
  247.6532   24.5297   41.0678 H   0  0  0  0  0  0  0  0  0  0  0  0  # atno 576  bound_to 535 
  246.8245   25.5300   42.0979 H   0  0  0  0  0  0  0  0  0  0  0  0  # atno 577  bound_to 535 
  246.0947   24.1677   41.4998 H   0  0  0  0  0  0  0  0  0  0  0  0  # atno 578  bound_to 535 
  244.9660   25.4010   35.1517 H   0  0  0  0  0  0  0  0  0  0  0  0  # atno 728  bound_to 681 
  238.7635   19.4938   37.3736 H   0  0  0  0  0  0  0  0  0  0  0  0  # atno 2566 bound_to 2531
  238.9154   18.4916   40.2152 H   0  0  0  0  0  0  0  0  0  0  0  0  # atno 2636 bound_to 2605
  239.5233    5.5684   36.0129 H   0  0  0  0  0  0  0  0  0  0  0  0  # atno 7435 bound_to 7417
  240.9341    4.0906   33.3544 H   0  0  0  0  0  0  0  0  0  0  0  0  # atno 7494 bound_to 7460
  242.8917    2.6158   32.1987 H   0  0  0  0  0  0  0  0  0  0  0  0  # atno 7528 bound_to 7515
  247.5260   -3.5426   36.3721 H   0  0  0  0  0  0  0  0  0  0  0  0  # atno 10118 bound_to 10098
  249.9794   -4.9501   39.8046 H   0  0  0  0  0  0  0  0  0  0  0  0  # atno 10154 bound_to 10134
  253.8501   13.0726   41.2175 H   0  0  0  0  0  0  0  0  0  0  0  0  # atno 11438 bound_to 11418
  254.1158   10.4524   42.1367 H   0  0  0  0  0  0  0  0  0  0  0  0  # atno 11499 bound_to 11466
  256.0595    7.4501   42.5493 H   0  0  0  0  0  0  0  0  0  0  0  0  # atno 11572 bound_to 11531
  257.4567    6.6516   40.7053 H   0  0  0  0  0  0  0  0  0  0  0  0  # atno 11648 bound_to 11607
  256.3534    8.7797   36.8184 H   0  0  0  0  0  0  0  0  0  0  0  0  # atno 17002 bound_to 16966
  254.5655    3.9833   38.3471 H   0  0  0  0  0  0  0  0  0  0  0  0  # atno 17198 bound_to 17178
  252.1267    4.6407   41.3461 H   0  0  0  0  0  0  0  0  0  0  0  0  # atno 17258 bound_to 17224
  252.0175    6.4636   43.3073 H   0  0  0  0  0  0  0  0  0  0  0  0  # atno 17306 bound_to 17285
  251.5083    8.4353   45.9385 H   0  0  0  0  0  0  0  0  0  0  0  0  # atno 17361 bound_to 17335
  250.3613    1.7527   44.9618 H   0  0  0  0  0  0  0  0  0  0  0  0  # atno 18250 bound_to 18212
  249.4734   -0.0108   40.8995 H   0  0  0  0  0  0  0  0  0  0  0  0  # atno 18298 bound_to 18277
  253.7136   -1.5727   39.5773 H   0  0  0  0  0  0  0  0  0  0  0  0  # atno 18302 bound_to 18282
  249.7838   -0.0530   38.1290 H   0  0  0  0  0  0  0  0  0  0  0  0  # atno 18328 bound_to 18315
  250.0201   -1.4101   33.8435 H   0  0  0  0  0  0  0  0  0  0  0  0  # atno 18417 bound_to 18373
  252.4758    1.6475   32.1410 H   0  0  0  0  0  0  0  0  0  0  0  0  # atno 18502 bound_to 18463
  254.3246    8.1320   33.8469 H   0  0  0  0  0  0  0  0  0  0  0  0  # atno 18510 bound_to 18474
  250.5898    4.3836   29.5744 H   0  0  0  0  0  0  0  0  0  0  0  0  # atno 18570 bound_to 18535
  251.8038   22.2016   32.8950 H   0  0  0  0  0  0  0  0  0  0  0  0  # atno 19310 bound_to 19290
  243.4713   12.9376   39.6274 H   0  0  0  0  0  0  0  0  0  0  0  0  # atno 26091 bound_to 26055
  243.6567   18.9180   31.4539 H   0  0  0  0  0  0  0  0  0  0  0  0  # atno 27195 bound_to 27136
  240.3399   18.0395   33.8724 H   0  0  0  0  0  0  0  0  0  0  0  0  # atno 27199 bound_to 27138
  249.4411   22.9048   34.7421 LP  0  0  0  0  0  0  0  0  0  0  0  0  # atno 27200 bound_to 684 
  249.4027   24.2196   35.8689 LP  0  0  0  0  0  0  0  0  0  0  0  0  # atno 27201 bound_to 684 
  239.2685   20.4333   38.7579 LP  0  0  0  0  0  0  0  0  0  0  0  0  # atno 27202 bound_to 2531
  240.7642   16.2853   40.1569 LP  0  0  0  0  0  0  0  0  0  0  0  0  # atno 27203 bound_to 2534
  239.1148   16.3241   40.6840 LP  0  0  0  0  0  0  0  0  0  0  0  0  # atno 27204 bound_to 2534
  240.2178   19.5624   40.6764 LP  0  0  0  0  0  0  0  0  0  0  0  0  # atno 27205 bound_to 2605
  242.0180   13.6680   39.6584 LP  0  0  0  0  0  0  0  0  0  0  0  0  # atno 27209 bound_to 26055
  242.1275   12.0519   39.8653 LP  0  0  0  0  0  0  0  0  0  0  0  0  # atno 27210 bound_to 26055
  244.0407   20.0570   32.5514 LP  0  0  0  0  0  0  0  0  0  0  0  0  # atno 27213 bound_to 27136
  242.7853   20.2904   31.5336 LP  0  0  0  0  0  0  0  0  0  0  0  0  # atno 27214 bound_to 27136
  245.4540   24.8573   33.5689 LP  0  0  0  0  0  0  0  0  0  0  0  0  # atno 27215 bound_to 681 
  241.8663    8.2980   34.7032 LP  0  0  0  0  0  0  0  0  0  0  0  0  # atno 27226 bound_to 7339
  241.3043    7.3115   33.3952 LP  0  0  0  0  0  0  0  0  0  0  0  0  # atno 27227 bound_to 7339
  240.2878    6.8497   35.1075 LP  0  0  0  0  0  0  0  0  0  0  0  0  # atno 27228 bound_to 7417
  242.1362    5.0548   32.5245 LP  0  0  0  0  0  0  0  0  0  0  0  0  # atno 27229 bound_to 7460
  241.2940    1.9228   32.3616 LP  0  0  0  0  0  0  0  0  0  0  0  0  # atno 27230 bound_to 7515
  252.2196    2.1439   38.4534 LP  0  0  0  0  0  0  0  0  0  0  0  0  # atno 27232 bound_to 17131
  251.7414    2.5027   36.8278 LP  0  0  0  0  0  0  0  0  0  0  0  0  # atno 27233 bound_to 17131
  253.0066    4.6780   37.9749 LP  0  0  0  0  0  0  0  0  0  0  0  0  # atno 27234 bound_to 17178
  251.0305    5.0420   40.0422 LP  0  0  0  0  0  0  0  0  0  0  0  0  # atno 27235 bound_to 17224
  250.1970    3.0259   40.9220 LP  0  0  0  0  0  0  0  0  0  0  0  0  # atno 27236 bound_to 18215
  251.7478    2.6467   41.5938 LP  0  0  0  0  0  0  0  0  0  0  0  0  # atno 27237 bound_to 18215
  250.9980    0.3630   41.6656 LP  0  0  0  0  0  0  0  0  0  0  0  0  # atno 27238 bound_to 18277
  250.2946   -2.0860   39.7298 LP  0  0  0  0  0  0  0  0  0  0  0  0  # atno 27239 bound_to 18280
  249.3730   -2.1834   38.2665 LP  0  0  0  0  0  0  0  0  0  0  0  0  # atno 27240 bound_to 18280
  251.1989    0.4137   37.2106 LP  0  0  0  0  0  0  0  0  0  0  0  0  # atno 27241 bound_to 18315
  252.4225   -2.0567   35.0876 LP  0  0  0  0  0  0  0  0  0  0  0  0  # atno 27242 bound_to 18318
  252.6912   -0.4583   35.6985 LP  0  0  0  0  0  0  0  0  0  0  0  0  # atno 27243 bound_to 18318
  250.2626    0.1537   34.5779 LP  0  0  0  0  0  0  0  0  0  0  0  0  # atno 27244 bound_to 18373
  249.0636    0.8603   31.9108 LP  0  0  0  0  0  0  0  0  0  0  0  0  # atno 27245 bound_to 18376
  249.6427    2.3863   32.4903 LP  0  0  0  0  0  0  0  0  0  0  0  0  # atno 27246 bound_to 18376
  251.5181    0.7718   30.9640 LP  0  0  0  0  0  0  0  0  0  0  0  0  # atno 27247 bound_to 18463
  249.7040    2.8775   29.6227 LP  0  0  0  0  0  0  0  0  0  0  0  0  # atno 27248 bound_to 18535
  253.8351    5.7609   42.1561 LP  0  0  0  0  0  0  0  0  0  0  0  0  # atno 27253 bound_to 17181
  253.9059    6.5662   40.6242 LP  0  0  0  0  0  0  0  0  0  0  0  0  # atno 27254 bound_to 17181
  256.9779    3.3683   37.8257 LP  0  0  0  0  0  0  0  0  0  0  0  0  # atno 27255 bound_to 17058
  256.6793    4.5664   36.6110 LP  0  0  0  0  0  0  0  0  0  0  0  0  # atno 27256 bound_to 17058
  249.7315    4.7843   44.0913 LP  0  0  0  0  0  0  0  0  0  0  0  0  # atno 27257 bound_to 17227
  251.3108    4.1512   43.7674 LP  0  0  0  0  0  0  0  0  0  0  0  0  # atno 27258 bound_to 17227
  255.8237    7.9259   33.2485 LP  0  0  0  0  0  0  0  0  0  0  0  0  # atno 27259 bound_to 18474
  255.3274    7.0508   34.5348 LP  0  0  0  0  0  0  0  0  0  0  0  0  # atno 27260 bound_to 18474
  250.8125    7.6158   43.8243 LP  0  0  0  0  0  0  0  0  0  0  0  0  # atno 27261 bound_to 17285
  250.4140    2.9346   43.6770 LP  0  0  0  0  0  0  0  0  0  0  0  0  # atno 27262 bound_to 18212
  252.1208   -1.8708   39.4319 LP  0  0  0  0  0  0  0  0  0  0  0  0  # atno 27263 bound_to 18282
  252.7502   -1.4696   40.8843 LP  0  0  0  0  0  0  0  0  0  0  0  0  # atno 27264 bound_to 18282
  247.3644   -5.1145   35.9832 LP  0  0  0  0  0  0  0  0  0  0  0  0  # atno 27265 bound_to 10098
  248.8430   -4.4215   35.9963 LP  0  0  0  0  0  0  0  0  0  0  0  0  # atno 27266 bound_to 10098
  250.3726   -1.3411   42.6885 LP  0  0  0  0  0  0  0  0  0  0  0  0  # atno 27267 bound_to 10137
  249.3019   -1.8634   41.4312 LP  0  0  0  0  0  0  0  0  0  0  0  0  # atno 27268 bound_to 10137
  251.5397   10.1149   42.9759 LP  0  0  0  0  0  0  0  0  0  0  0  0  # atno 27269 bound_to 11416
  252.3663    8.5955   42.8859 LP  0  0  0  0  0  0  0  0  0  0  0  0  # atno 27270 bound_to 11416
  256.0057    8.9189   35.2349 LP  0  0  0  0  0  0  0  0  0  0  0  0  # atno 27271 bound_to 16966
  257.0973    9.9183   35.9252 LP  0  0  0  0  0  0  0  0  0  0  0  0  # atno 27272 bound_to 16966
  254.9792    9.9069   43.5591 LP  0  0  0  0  0  0  0  0  0  0  0  0  # atno 27273 bound_to 11466
  255.2997    5.9237   42.1677 LP  0  0  0  0  0  0  0  0  0  0  0  0  # atno 27274 bound_to 11531
  258.0636    8.6936   37.9597 LP  0  0  0  0  0  0  0  0  0  0  0  0  # atno 27275 bound_to 11610
  257.8522    6.9987   38.2470 LP  0  0  0  0  0  0  0  0  0  0  0  0  # atno 27276 bound_to 11610
  258.5041    5.7191   41.7476 LP  0  0  0  0  0  0  0  0  0  0  0  0  # atno 27279 bound_to 11607
  254.6334   11.7990   41.8593 LP  0  0  0  0  0  0  0  0  0  0  0  0  # atno 27282 bound_to 11418
  255.0538   13.3186   42.2842 LP  0  0  0  0  0  0  0  0  0  0  0  0  # atno 27283 bound_to 11418
  253.1084   11.8383   29.1236 LP  0  0  0  0  0  0  0  0  0  0  0  0  # atno 27284 bound_to 18693
  251.9901   11.5230   30.4081 LP  0  0  0  0  0  0  0  0  0  0  0  0  # atno 27285 bound_to 18693

> <Gold.Score>
     Fitness  S(hb_ext) S(vdw_ext)  S(hb_int)    S(int)      intcor
     27.34       6.00      16.20       0.00      -0.93      -0.77

> <Gold.Goldscore.Fitness>
27.3406

> <Gold.Goldscore.Internal.Vdw>
-1.1081

> <Gold.Goldscore.Internal.Torsion>
-0.5940

> <Gold.Goldscore.External.Vdw>
16.1989

> <Gold.Goldscore.Internal.HBond>
0.0000

> <Gold.Goldscore.External.HBond>
6.0000

> <Gold.Goldscore.Internal.Correction>
-0.7693

> <Gold.Goldscore.Hbonds>
donor molecule, donor type, donor heavy atom, donor atom, acceptor molecule, acceptor atom, score
      L1  H     8    22       P1 27129  1.00

> <Gold.Goldscore.Internal.Vdw.Weighted>
-1.1081

> <Gold.Goldscore.Internal.Torsion.Weighted>
-0.5940

> <Gold.Goldscore.External.Vdw.Weighted>
22.2734

> <Gold.Goldscore.Internal.HBond.Weighted>
0.0000

> <Gold.Goldscore.External.HBond.Weighted>
6.0000

> <Gold.Goldscore.Internal.Correction.Weighted>
-0.7693

> <Gold.Rescore>
     Score     S(PLP)   S(hbond)     S(cho)   S(metal)  DE(clash)   DE(tors)     intcor
     22.55     -21.67       1.00       0.00       0.00       0.78       0.67       ----

> <Gold.PLP.Fitness>
22.5479

> <Gold.PLP.PLP>
-21.6707

> <Gold.PLP.part.hbond>
-1.9245

> <Gold.PLP.part.metal>
0.0000

> <Gold.PLP.part.buried>
-2.9280

> <Gold.PLP.part.nonpolar>
-18.1243

> <Gold.PLP.part.repulsive>
0.3751

> <Gold.PLP.ligand.clash>
0.7830

> <Gold.PLP.ligand.torsion>
0.6699

> <Gold.PLP.Chemscore.Hbond>
1.0000

> <Gold.PLP.Chemscore.CHOScore>
0.0000

> <Gold.PLP.Chemscore.Metal>
0.0000

> <Gold.Chemscore.Hbonds>
donor molecule, donor type, donor heavy atom, donor atom, acceptor molecule, acceptor atom, score
      L1  H     8    22       P1 27129  1.00

> <Gold.PLP.Chemscore.Internal.Correction>
   9.000000E+99

