#       Name:                CT1002167954
#       Creating user name   hitesit
#       Creation time:       Sun Apr 16 22:59:49 2023


#       File generated by GOLD software.
#

@<TRIPOS>MOLECULE
CT1002167954|ligand_prepared|mol2|1|dock3
    29    30     1
SMALL
NO_CHARGES


@<TRIPOS>ATOM
      1 C1         229.0669  25.1917  13.4941 C.3            1 RES1               0.0000
      2 C2         228.9936  23.8121  12.8085 C.ar           1 RES1               0.0000
      3 C3         230.4942  25.3365  14.0139 C.2            1 RES1               0.0000
      4 C4         228.6847  26.2167  12.4321 C.2            1 RES1               0.0000
      5 C5         228.0923  25.3506  14.6842 C.3            1 RES1               0.0000
      6 C6         228.3755  22.7381  13.4418 C.ar           1 RES1               0.0000
      7 C7         229.5361  23.5991  11.5440 C.ar           1 RES1               0.0000
      8 N8         231.3270  26.1851  13.3458 N.am           1 RES1               0.0000
      9 O9         230.8946  24.6861  14.9715 O.2            1 RES1               0.0000
     10 N10        229.6442  27.1050  12.0221 N.am           1 RES1               0.0000
     11 O11        227.5660  26.2525  11.9345 O.2            1 RES1               0.0000
     12 C12        227.9844  26.7762  15.2022 C.3            1 RES1               0.0000
     13 C13        228.2998  21.4968  12.8319 C.ar           1 RES1               0.0000
     14 C14        229.4595  22.3570  10.9360 C.ar           1 RES1               0.0000
     15 C15        230.9568  27.1158  12.4086 C.2            1 RES1               0.0000
     16 C16        228.8413  21.3055  11.5786 C.ar           1 RES1               0.0000
     17 O17        231.7730  27.9123  11.9542 O.2            1 RES1               0.0000
     18 H18        227.0965  25.0118  14.3727 H              1 RES1               0.0000
     19 H19        228.4263  24.7017  15.5032 H              1 RES1               0.0000
     20 H20        227.9458  22.8690  14.4294 H              1 RES1               0.0000
     21 H21        230.0281  24.4115  11.0200 H              1 RES1               0.0000
     22 H22        232.3165  26.1217  13.5630 H              1 RES1               0.0000
     23 H23        229.3530  27.8249  11.3685 H              1 RES1               0.0000
     24 H24        227.2882  26.8318  16.0364 H              1 RES1               0.0000
     25 H25        228.9523  27.1367  15.5440 H              1 RES1               0.0000
     26 H26        227.6304  27.4449  14.4202 H              1 RES1               0.0000
     27 H27        227.8134  20.6722  13.3425 H              1 RES1               0.0000
     28 H28        229.8876  22.2108   9.9498 H              1 RES1               0.0000
     29 H29        228.7816  20.3332  11.1009 H              1 RES1               0.0000
@<TRIPOS>BOND
    1    1    2 1     
    2    1    3 1     
    3    1    4 1     
    4    1    5 1     
    5    2    6 ar    
    6    2    7 ar    
    7    3    8 1     
    8    3    9 2     
    9    4   10 1     
   10    4   11 2     
   11    5   12 1     
   12    5   18 1     
   13    5   19 1     
   14    6   13 ar    
   15    6   20 1     
   16    7   14 ar    
   17    7   21 1     
   18    8   15 1     
   19    8   22 1     
   20   10   15 1     
   21   10   23 1     
   22   12   24 1     
   23   12   25 1     
   24   12   26 1     
   25   13   16 ar    
   26   13   27 1     
   27   14   16 ar    
   28   14   28 1     
   29   15   17 2     
   30   16   29 1     
@<TRIPOS>SUBSTRUCTURE
      1 RES1           1
@<TRIPOS>SET
DONOR_HYDROGENS      STATIC     ATOMS    <user>   **** ""
2 22 23
ATOM$RED        STATIC     ATOMS    COLORGROUP SYSTEM
2 22 23
@<TRIPOS>COMMENT
> <Gold.Version>
2022.3.0

> <Gold.Id.Protein>
unknown|4v3u_clean|pdb

> <Gold.Protein.RotatedTorsions>
[  594  544  543  542 ] final  -15.59 input   59.98 | X-H torsion
[  739  695  696  697 ] final  -71.57 input   98.51 | X-H torsion
[ 2556 2523 2524 2525 ] final  -27.81 input  111.11 | X-H torsion
[ 2627 2595 2596 2597 ] final   14.57 input   53.40 | X-H torsion
[ 26082 26043 26042 26040 ] final  -13.93 input   60.02 | X-H torsion
[ 27179 27119 27118 27114 ] final  158.96 input   60.01 | X-H torsion
[ 7426 7411 7412 7413 ] final  170.29 input   83.97 | X-H torsion
[ 7476 7453 7454 7455 ] final  178.35 input   94.79 | X-H torsion
[ 7522 7511 7512 7513 ] final  106.07 input   85.82 | X-H torsion
[ 17193 17173 17174 17175 ] final  -29.58 input   42.33 | X-H torsion
[ 17249 17217 17218 17219 ] final  158.83 input  107.71 | X-H torsion
[ 18293 18271 18272 18273 ] final  -99.93 input   26.15 | X-H torsion
[ 18325 18311 18312 18313 ] final  141.52 input   53.27 | X-H torsion
[ 18407 18359 18360 18361 ] final  164.73 input   33.85 | X-H torsion
[ 18493 18451 18452 18453 ] final  -18.97 input  113.35 | X-H torsion
[ 18561 18527 18528 18529 ] final   53.30 input   85.91 | X-H torsion
[ 18501 18462 18461 18459 ] final  -61.23 input   59.98 | X-H torsion
[ 18241 18201 18202 18203 ] final  150.02 input   44.19 | X-H torsion
[ 18297 18276 18275 18272 ] final   95.47 input   59.98 | X-H torsion
[ 10099 10092 10091 10088 ] final  134.82 input   59.98 | X-H torsion
[ 17301 17279 17280 17281 ] final  -11.40 input   44.55 | X-H torsion
[ 16993 16954 16953 16951 ] final   56.52 input   59.99 | X-H torsion
[ 11475 11457 11458 11459 ] final  -54.27 input   48.15 | X-H torsion
[ 11539 11523 11524 11525 ] final   26.55 input  117.79 | X-H torsion
[ 11615 11599 11600 11601 ] final  -71.59 input   58.98 | X-H torsion
[ 11423 11412 11411 11408 ] final   30.64 input   60.01 | X-H torsion
[ 27181 27121 27120 27118 ] final -173.23 input   60.02 | X-H torsion
[ 10139 10129 10130 10131 ] final   10.12 input   28.23 | X-H torsion
[ 17356 17327 17328 17329 ] final -110.60 input   73.50 | X-H torsion
[ 27201  698  697  696 ] final  -28.05 input    0.00 | X-H torsion
[ 27204 2526 2525 2524 ] final  -30.92 input    0.00 | X-H torsion
[ 27228 7328 7327 7326 ] final   -5.61 input    0.00 | X-H torsion
[ 27233 7514 7513 7512 ] final  -98.53 input    0.00 | X-H torsion
[ 27236 17124 17123 17122 ] final  -86.31 input    0.00 | X-H torsion
[ 27240 18204 18203 18202 ] final  -47.97 input    0.00 | X-H torsion
[ 27243 18274 18273 18272 ] final  137.62 input    0.00 | X-H torsion
[ 27246 18314 18313 18312 ] final   49.15 input   -0.00 | X-H torsion
[ 27249 18362 18361 18360 ] final   -5.98 input    0.00 | X-H torsion
[ 27257 17176 17175 17174 ] final  138.86 input   -0.00 | X-H torsion
[ 27259 17220 17219 17218 ] final -114.28 input   -0.00 | X-H torsion
[ 27261 17050 17049 17048 ] final -127.02 input    0.00 | X-H torsion
[ 27270 10132 10131 10130 ] final  -73.81 input    0.00 | X-H torsion
[ 27272 11410 11409 11408 ] final -100.62 input   -0.00 | X-H torsion
[ 27279 11602 11601 11600 ] final -134.42 input    0.00 | X-H torsion
[ 27288 18684 18683 18682 ] final  -43.05 input   -0.00 | X-H torsion

> <Gold.Protein.ActiveResidues>
 LYS309  TRP311  GLU314  MET341  HIS342  TRP414  ALA417  ARG419  CYS420  VAL421 
 GLY422  ARG423  LEU460  SER462  ALA463  SER482  GLN483  LEU484  ILE485  ARG486 
 ALA502  TRP566  TYR567  LEU569  PRO570  ALA571  VAL572  SER573  ASN574  MET575 
 PHE589  SER590  GLY591  TRP592  TYR593  MET594  GLU597  ILE598  ARG601  ASP602 
 ASP605  ARG608  TRP683  PHE696  HIS697  GLU699  TYR711  ASP714  HEM750  H4B760 

> <Gold.Protein.RotatedAtoms>
  220.4335    8.7261   19.4579 H   0  0  0  0  0  0  0  0  0  0  0  0  # atno 594  bound_to 544 
  221.1911    8.4566   18.0087 H   0  0  0  0  0  0  0  0  0  0  0  0  # atno 595  bound_to 544 
  219.9796    7.4430   18.5121 H   0  0  0  0  0  0  0  0  0  0  0  0  # atno 596  bound_to 544 
  226.9695    6.3145   20.1719 H   0  0  0  0  0  0  0  0  0  0  0  0  # atno 739  bound_to 695 
  224.5922   14.0633   26.4034 H   0  0  0  0  0  0  0  0  0  0  0  0  # atno 2556 bound_to 2523
  222.6330   14.2789   25.5547 H   0  0  0  0  0  0  0  0  0  0  0  0  # atno 2627 bound_to 2595
  229.0607   26.3390   21.9722 H   0  0  0  0  0  0  0  0  0  0  0  0  # atno 7426 bound_to 7411
  232.7382   26.5364   20.8981 H   0  0  0  0  0  0  0  0  0  0  0  0  # atno 7476 bound_to 7453
  233.0469   28.9956   18.9806 H   0  0  0  0  0  0  0  0  0  0  0  0  # atno 7522 bound_to 7511
  230.9005   35.9748   13.2469 H   0  0  0  0  0  0  0  0  0  0  0  0  # atno 10099 bound_to 10092
  226.3906   34.6510   11.1590 H   0  0  0  0  0  0  0  0  0  0  0  0  # atno 10139 bound_to 10129
  221.9031   19.4370    8.9502 H   0  0  0  0  0  0  0  0  0  0  0  0  # atno 11423 bound_to 11412
  220.5064   21.9219    8.7240 H   0  0  0  0  0  0  0  0  0  0  0  0  # atno 11475 bound_to 11457
  223.0487   24.1906    6.6840 H   0  0  0  0  0  0  0  0  0  0  0  0  # atno 11539 bound_to 11523
  222.7685   23.8792    4.6802 H   0  0  0  0  0  0  0  0  0  0  0  0  # atno 11615 bound_to 11599
  227.3548   21.0468    6.5692 H   0  0  0  0  0  0  0  0  0  0  0  0  # atno 16993 bound_to 16954
  226.7692   25.7576    9.0626 H   0  0  0  0  0  0  0  0  0  0  0  0  # atno 17193 bound_to 17173
  225.1039   26.2886   11.2897 H   0  0  0  0  0  0  0  0  0  0  0  0  # atno 17249 bound_to 17217
  220.9527   24.5022   12.1723 H   0  0  0  0  0  0  0  0  0  0  0  0  # atno 17301 bound_to 17279
  218.4218   24.5236   11.9779 H   0  0  0  0  0  0  0  0  0  0  0  0  # atno 17356 bound_to 17327
  221.0109   30.2042   12.3499 H   0  0  0  0  0  0  0  0  0  0  0  0  # atno 18241 bound_to 18201
  224.8143   30.9210   12.0116 H   0  0  0  0  0  0  0  0  0  0  0  0  # atno 18293 bound_to 18271
  226.9590   32.5591    8.2477 H   0  0  0  0  0  0  0  0  0  0  0  0  # atno 18297 bound_to 18276
  228.2271   30.7232   11.8467 H   0  0  0  0  0  0  0  0  0  0  0  0  # atno 18325 bound_to 18311
  231.7887   31.6990   10.4626 H   0  0  0  0  0  0  0  0  0  0  0  0  # atno 18407 bound_to 18359
  234.4799   28.8893    9.9994 H   0  0  0  0  0  0  0  0  0  0  0  0  # atno 18493 bound_to 18451
  230.9092   21.4622    7.7940 H   0  0  0  0  0  0  0  0  0  0  0  0  # atno 18501 bound_to 18462
  235.2992   25.3567   11.9567 H   0  0  0  0  0  0  0  0  0  0  0  0  # atno 18561 bound_to 18527
  224.4573   20.0744   20.2777 H   0  0  0  0  0  0  0  0  0  0  0  0  # atno 26082 bound_to 26043
  230.6068   11.3942   21.5810 H   0  0  0  0  0  0  0  0  0  0  0  0  # atno 27179 bound_to 27119
  229.7946   13.5232   25.3909 H   0  0  0  0  0  0  0  0  0  0  0  0  # atno 27181 bound_to 27121
  227.8232    7.7852   20.5639 LP  0  0  0  0  0  0  0  0  0  0  0  0  # atno 27200 bound_to 695 
  226.0066    7.9440   16.2268 LP  0  0  0  0  0  0  0  0  0  0  0  0  # atno 27201 bound_to 698 
  227.5715    7.6956   15.5273 LP  0  0  0  0  0  0  0  0  0  0  0  0  # atno 27202 bound_to 698 
  225.4744   13.1256   25.2251 LP  0  0  0  0  0  0  0  0  0  0  0  0  # atno 27203 bound_to 2523
  224.2597   17.5345   24.8355 LP  0  0  0  0  0  0  0  0  0  0  0  0  # atno 27204 bound_to 2526
  222.6103   17.4910   24.3088 LP  0  0  0  0  0  0  0  0  0  0  0  0  # atno 27205 bound_to 2526
  222.9732   15.4133   24.2662 LP  0  0  0  0  0  0  0  0  0  0  0  0  # atno 27206 bound_to 2595
  224.3564   19.3903   21.7510 LP  0  0  0  0  0  0  0  0  0  0  0  0  # atno 27210 bound_to 26043
  224.4187   21.0155   21.6049 LP  0  0  0  0  0  0  0  0  0  0  0  0  # atno 27211 bound_to 26043
  231.6434   12.5804   21.1711 LP  0  0  0  0  0  0  0  0  0  0  0  0  # atno 27214 bound_to 27119
  230.2487   12.3892   20.3435 LP  0  0  0  0  0  0  0  0  0  0  0  0  # atno 27215 bound_to 27119
  230.9102   23.6317   21.5972 LP  0  0  0  0  0  0  0  0  0  0  0  0  # atno 27228 bound_to 7328
  231.2027   25.0108   20.5910 LP  0  0  0  0  0  0  0  0  0  0  0  0  # atno 27229 bound_to 7328
  230.5572   26.4632   22.8608 LP  0  0  0  0  0  0  0  0  0  0  0  0  # atno 27230 bound_to 7411
  232.4255   27.9831   19.9681 LP  0  0  0  0  0  0  0  0  0  0  0  0  # atno 27231 bound_to 7453
  234.2930   29.4994   20.0956 LP  0  0  0  0  0  0  0  0  0  0  0  0  # atno 27232 bound_to 7511
  233.9652   33.8896   18.4349 LP  0  0  0  0  0  0  0  0  0  0  0  0  # atno 27233 bound_to 7514
  232.4535   33.2706   17.8592 LP  0  0  0  0  0  0  0  0  0  0  0  0  # atno 27234 bound_to 7514
  228.0230   28.0848   10.4531 LP  0  0  0  0  0  0  0  0  0  0  0  0  # atno 27236 bound_to 17124
  227.6743   29.0697    9.0717 LP  0  0  0  0  0  0  0  0  0  0  0  0  # atno 27237 bound_to 17124
  226.9458   26.9645    7.8131 LP  0  0  0  0  0  0  0  0  0  0  0  0  # atno 27238 bound_to 17173
  223.8281   26.8827   10.2453 LP  0  0  0  0  0  0  0  0  0  0  0  0  # atno 27239 bound_to 17217
  223.9899   28.6669   11.8623 LP  0  0  0  0  0  0  0  0  0  0  0  0  # atno 27240 bound_to 18204
  224.6459   29.0088   10.2962 LP  0  0  0  0  0  0  0  0  0  0  0  0  # atno 27241 bound_to 18204
  224.7135   32.1646   10.7938 LP  0  0  0  0  0  0  0  0  0  0  0  0  # atno 27242 bound_to 18271
  227.9327   33.3427   11.9783 LP  0  0  0  0  0  0  0  0  0  0  0  0  # atno 27243 bound_to 18274
  226.8944   33.4942   10.6002 LP  0  0  0  0  0  0  0  0  0  0  0  0  # atno 27244 bound_to 18274
  228.4088   30.9358   10.1192 LP  0  0  0  0  0  0  0  0  0  0  0  0  # atno 27245 bound_to 18311
  230.5010   32.4987    8.7312 LP  0  0  0  0  0  0  0  0  0  0  0  0  # atno 27246 bound_to 18314
  230.9007   30.8601    8.3371 LP  0  0  0  0  0  0  0  0  0  0  0  0  # atno 27247 bound_to 18314
  231.7806   30.2465   11.4370 LP  0  0  0  0  0  0  0  0  0  0  0  0  # atno 27248 bound_to 18359
  233.3692   29.5247   12.1853 LP  0  0  0  0  0  0  0  0  0  0  0  0  # atno 27249 bound_to 18362
  234.0256   27.9307   12.0172 LP  0  0  0  0  0  0  0  0  0  0  0  0  # atno 27250 bound_to 18362
  233.6134   27.9909    8.7774 LP  0  0  0  0  0  0  0  0  0  0  0  0  # atno 27251 bound_to 18451
  235.9797   26.9292   11.6134 LP  0  0  0  0  0  0  0  0  0  0  0  0  # atno 27252 bound_to 18527
  223.3734   24.6016    9.2493 LP  0  0  0  0  0  0  0  0  0  0  0  0  # atno 27257 bound_to 17176
  223.1274   25.9070    8.1377 LP  0  0  0  0  0  0  0  0  0  0  0  0  # atno 27258 bound_to 17176
  220.9056   27.5925   12.4516 LP  0  0  0  0  0  0  0  0  0  0  0  0  # atno 27259 bound_to 17220
  221.8169   27.8812   11.0073 LP  0  0  0  0  0  0  0  0  0  0  0  0  # atno 27260 bound_to 17220
  227.2490   26.2589    5.9903 LP  0  0  0  0  0  0  0  0  0  0  0  0  # atno 27261 bound_to 17050
  228.3183   25.7359    4.7321 LP  0  0  0  0  0  0  0  0  0  0  0  0  # atno 27262 bound_to 17050
  230.3108   22.6020    6.7987 LP  0  0  0  0  0  0  0  0  0  0  0  0  # atno 27263 bound_to 18462
  229.8922   22.5907    8.3770 LP  0  0  0  0  0  0  0  0  0  0  0  0  # atno 27264 bound_to 18462
  221.8017   29.6240   10.9021 LP  0  0  0  0  0  0  0  0  0  0  0  0  # atno 27265 bound_to 18201
  225.6904   32.7635    9.2468 LP  0  0  0  0  0  0  0  0  0  0  0  0  # atno 27266 bound_to 18276
  225.4628   32.1590    7.7470 LP  0  0  0  0  0  0  0  0  0  0  0  0  # atno 27267 bound_to 18276
  230.7905   35.2751   11.7820 LP  0  0  0  0  0  0  0  0  0  0  0  0  # atno 27268 bound_to 10092
  230.2851   34.4745   13.1125 LP  0  0  0  0  0  0  0  0  0  0  0  0  # atno 27269 bound_to 10092
  224.1954   33.2897   10.5247 LP  0  0  0  0  0  0  0  0  0  0  0  0  # atno 27270 bound_to 10132
  224.3197   33.5508   12.2325 LP  0  0  0  0  0  0  0  0  0  0  0  0  # atno 27271 bound_to 10132
  220.8585   23.3273   10.8726 LP  0  0  0  0  0  0  0  0  0  0  0  0  # atno 27272 bound_to 11410
  221.9331   22.1323   11.5187 LP  0  0  0  0  0  0  0  0  0  0  0  0  # atno 27273 bound_to 11410
  221.5487   25.4523   10.8361 LP  0  0  0  0  0  0  0  0  0  0  0  0  # atno 27274 bound_to 17279
  228.9081   20.6942    6.9015 LP  0  0  0  0  0  0  0  0  0  0  0  0  # atno 27275 bound_to 16954
  228.0381   19.7197    5.9216 LP  0  0  0  0  0  0  0  0  0  0  0  0  # atno 27276 bound_to 16954
  221.9053   20.8811    8.8979 LP  0  0  0  0  0  0  0  0  0  0  0  0  # atno 27277 bound_to 11457
  221.5794   24.7542    7.4406 LP  0  0  0  0  0  0  0  0  0  0  0  0  # atno 27278 bound_to 11523
  226.6523   21.5663    4.4129 LP  0  0  0  0  0  0  0  0  0  0  0  0  # atno 27279 bound_to 11602
  225.7801   22.7034    5.3856 LP  0  0  0  0  0  0  0  0  0  0  0  0  # atno 27280 bound_to 11602
  224.0528   25.0616    4.6861 LP  0  0  0  0  0  0  0  0  0  0  0  0  # atno 27283 bound_to 11599
  221.0130   18.0750    8.9076 LP  0  0  0  0  0  0  0  0  0  0  0  0  # atno 27286 bound_to 11412
  222.2912   18.1871    9.9177 LP  0  0  0  0  0  0  0  0  0  0  0  0  # atno 27287 bound_to 11412
  234.5061   17.7625   11.5965 LP  0  0  0  0  0  0  0  0  0  0  0  0  # atno 27288 bound_to 18684
  233.8543   18.2080   10.0548 LP  0  0  0  0  0  0  0  0  0  0  0  0  # atno 27289 bound_to 18684

> <Gold.Score>
     Fitness  S(hb_ext) S(vdw_ext)  S(hb_int)    S(int)      intcor
     44.37       2.55      30.84       0.00      -0.58      -0.77

> <Gold.Goldscore.Fitness>
44.3694

> <Gold.Goldscore.Internal.Vdw>
-0.8211

> <Gold.Goldscore.Internal.Torsion>
-0.5276

> <Gold.Goldscore.External.Vdw>
30.8415

> <Gold.Goldscore.Internal.HBond>
0.0000

> <Gold.Goldscore.External.HBond>
2.5457

> <Gold.Goldscore.Internal.Correction>
-0.7653

> <Gold.Goldscore.Hbonds>
donor molecule, donor type, donor heavy atom, donor atom, acceptor molecule, acceptor atom, score
      P1  H 17217 17249       L1    11  1.00
      L1  H     8    22       P1 18689  0.02
      L1  H    10    23       P1 17124  0.22

> <Gold.Goldscore.Internal.Vdw.Weighted>
-0.8211

> <Gold.Goldscore.Internal.Torsion.Weighted>
-0.5276

> <Gold.Goldscore.External.Vdw.Weighted>
42.4071

> <Gold.Goldscore.Internal.HBond.Weighted>
0.0000

> <Gold.Goldscore.External.HBond.Weighted>
2.5457

> <Gold.Goldscore.Internal.Correction.Weighted>
-0.7653

> <Gold.Rescore>
     Score     S(PLP)   S(hbond)     S(cho)   S(metal)  DE(clash)   DE(tors)     intcor
     29.44     -27.55       1.54       0.00       0.00       0.00       1.37       ----

> <Gold.PLP.Fitness>
29.4360

> <Gold.PLP.PLP>
-27.5532

> <Gold.PLP.part.hbond>
-4.1322

> <Gold.PLP.part.metal>
0.0000

> <Gold.PLP.part.buried>
11.2242

> <Gold.PLP.part.nonpolar>
-39.3177

> <Gold.PLP.part.repulsive>
2.8981

> <Gold.PLP.ligand.clash>
0.0000

> <Gold.PLP.ligand.torsion>
1.3746

> <Gold.PLP.Chemscore.Hbond>
1.5440

> <Gold.PLP.Chemscore.CHOScore>
0.0000

> <Gold.PLP.Chemscore.Metal>
0.0000

> <Gold.Chemscore.Hbonds>
donor molecule, donor type, donor heavy atom, donor atom, acceptor molecule, acceptor atom, score
      L1  H     8    22       P1 18689  0.62
      L1  H    10    23       P1 17124  0.05

> <Gold.PLP.Chemscore.Internal.Correction>
   9.000000E+99

#       Name:                CT1002167954
#       Creating user name   hitesit
#       Creation time:       Sun Apr 16 22:59:54 2023


#       File generated by GOLD software.
#

@<TRIPOS>MOLECULE
CT1002167954|ligand_prepared|mol2|1|dock9
    29    30     1
SMALL
NO_CHARGES


@<TRIPOS>ATOM
      1 C1         228.8372  26.0382  13.4671 C.3            1 RES1               0.0000
      2 C2         228.5723  24.6984  12.7504 C.ar           1 RES1               0.0000
      3 C3         230.3052  26.0186  13.8831 C.2            1 RES1               0.0000
      4 C4         228.4890  27.1338  12.4657 C.2            1 RES1               0.0000
      5 C5         227.9715  26.2528  14.7304 C.3            1 RES1               0.0000
      6 C6         228.4684  24.6450  11.3637 C.ar           1 RES1               0.0000
      7 C7         228.4325  23.5093  13.4610 C.ar           1 RES1               0.0000
      8 N8         231.1719  26.8014  13.1790 N.am           1 RES1               0.0000
      9 O9         230.7029  25.2972  14.7896 O.2            1 RES1               0.0000
     10 N10        229.5040  27.9340  12.0106 N.am           1 RES1               0.0000
     11 O11        227.3475  27.3008  12.0540 O.2            1 RES1               0.0000
     12 C12        228.0228  27.6716  15.2750 C.3            1 RES1               0.0000
     13 C13        228.2361  23.4459  10.7106 C.ar           1 RES1               0.0000
     14 C14        228.1999  22.3112  12.8060 C.ar           1 RES1               0.0000
     15 C15        230.8348  27.7977  12.2985 C.2            1 RES1               0.0000
     16 C16        228.1022  22.2782  11.4312 C.ar           1 RES1               0.0000
     17 O17        231.6950  28.5228  11.8071 O.2            1 RES1               0.0000
     18 H18        226.9303  26.0037  14.4914 H              1 RES1               0.0000
     19 H19        228.3105  25.5621  15.5124 H              1 RES1               0.0000
     20 H20        228.5687  25.5541  10.7800 H              1 RES1               0.0000
     21 H21        228.5046  23.5114  14.5433 H              1 RES1               0.0000
     22 H22        232.1624  26.6301  13.3201 H              1 RES1               0.0000
     23 H23        229.2435  28.7026  11.4009 H              1 RES1               0.0000
     24 H24        227.3983  27.7675  16.1608 H              1 RES1               0.0000
     25 H25        229.0405  27.9439  15.5468 H              1 RES1               0.0000
     26 H26        227.6684  28.3830  14.5319 H              1 RES1               0.0000
     27 H27        228.1586  23.4256   9.6286 H              1 RES1               0.0000
     28 H28        228.0945  21.3947  13.3772 H              1 RES1               0.0000
     29 H29        227.9206  21.3390  10.9194 H              1 RES1               0.0000
@<TRIPOS>BOND
    1    1    2 1     
    2    1    3 1     
    3    1    4 1     
    4    1    5 1     
    5    2    6 ar    
    6    2    7 ar    
    7    3    8 1     
    8    3    9 2     
    9    4   10 1     
   10    4   11 2     
   11    5   12 1     
   12    5   18 1     
   13    5   19 1     
   14    6   13 ar    
   15    6   20 1     
   16    7   14 ar    
   17    7   21 1     
   18    8   15 1     
   19    8   22 1     
   20   10   15 1     
   21   10   23 1     
   22   12   24 1     
   23   12   25 1     
   24   12   26 1     
   25   13   16 ar    
   26   13   27 1     
   27   14   16 ar    
   28   14   28 1     
   29   15   17 2     
   30   16   29 1     
@<TRIPOS>SUBSTRUCTURE
      1 RES1           1
@<TRIPOS>SET
DONOR_HYDROGENS      STATIC     ATOMS    <user>   **** ""
2 22 23
ATOM$RED        STATIC     ATOMS    COLORGROUP SYSTEM
2 22 23
@<TRIPOS>COMMENT
> <Gold.Version>
2022.3.0

> <Gold.Id.Protein>
unknown|4v3u_clean|pdb

> <Gold.Protein.RotatedTorsions>
[  594  544  543  542 ] final  -71.86 input   59.98 | X-H torsion
[  739  695  696  697 ] final  119.68 input   98.51 | X-H torsion
[ 2556 2523 2524 2525 ] final   -3.23 input  111.11 | X-H torsion
[ 2627 2595 2596 2597 ] final -171.05 input   53.40 | X-H torsion
[ 26082 26043 26042 26040 ] final -119.77 input   60.02 | X-H torsion
[ 27179 27119 27118 27114 ] final   97.76 input   60.01 | X-H torsion
[ 7426 7411 7412 7413 ] final -160.04 input   83.97 | X-H torsion
[ 7476 7453 7454 7455 ] final   -3.74 input   94.79 | X-H torsion
[ 7522 7511 7512 7513 ] final  -65.55 input   85.82 | X-H torsion
[ 17193 17173 17174 17175 ] final  125.52 input   42.33 | X-H torsion
[ 17249 17217 17218 17219 ] final  123.32 input  107.71 | X-H torsion
[ 18293 18271 18272 18273 ] final  141.81 input   26.15 | X-H torsion
[ 18325 18311 18312 18313 ] final  -63.00 input   53.27 | X-H torsion
[ 18407 18359 18360 18361 ] final   88.52 input   33.85 | X-H torsion
[ 18493 18451 18452 18453 ] final   20.88 input  113.35 | X-H torsion
[ 18561 18527 18528 18529 ] final   40.62 input   85.91 | X-H torsion
[ 18501 18462 18461 18459 ] final   25.74 input   59.98 | X-H torsion
[ 18241 18201 18202 18203 ] final -142.63 input   44.19 | X-H torsion
[ 18297 18276 18275 18272 ] final   16.72 input   59.98 | X-H torsion
[ 10099 10092 10091 10088 ] final  -78.28 input   59.98 | X-H torsion
[ 17301 17279 17280 17281 ] final   27.12 input   44.55 | X-H torsion
[ 16993 16954 16953 16951 ] final  -97.35 input   59.99 | X-H torsion
[ 11475 11457 11458 11459 ] final  128.57 input   48.15 | X-H torsion
[ 11539 11523 11524 11525 ] final  -97.15 input  117.79 | X-H torsion
[ 11615 11599 11600 11601 ] final  -34.81 input   58.98 | X-H torsion
[ 11423 11412 11411 11408 ] final  116.67 input   60.01 | X-H torsion
[ 27181 27121 27120 27118 ] final -158.71 input   60.02 | X-H torsion
[ 10139 10129 10130 10131 ] final  -55.17 input   28.23 | X-H torsion
[ 17356 17327 17328 17329 ] final  129.18 input   73.50 | X-H torsion
[ 27201  698  697  696 ] final  109.10 input    0.00 | X-H torsion
[ 27204 2526 2525 2524 ] final   43.42 input    0.00 | X-H torsion
[ 27228 7328 7327 7326 ] final  169.88 input    0.00 | X-H torsion
[ 27233 7514 7513 7512 ] final   46.15 input    0.00 | X-H torsion
[ 27236 17124 17123 17122 ] final  117.73 input    0.00 | X-H torsion
[ 27240 18204 18203 18202 ] final -150.37 input    0.00 | X-H torsion
[ 27243 18274 18273 18272 ] final -142.16 input    0.00 | X-H torsion
[ 27246 18314 18313 18312 ] final  158.93 input   -0.00 | X-H torsion
[ 27249 18362 18361 18360 ] final  -18.53 input    0.00 | X-H torsion
[ 27257 17176 17175 17174 ] final  104.02 input   -0.00 | X-H torsion
[ 27259 17220 17219 17218 ] final -115.12 input   -0.00 | X-H torsion
[ 27261 17050 17049 17048 ] final -139.27 input    0.00 | X-H torsion
[ 27270 10132 10131 10130 ] final  -71.78 input    0.00 | X-H torsion
[ 27272 11410 11409 11408 ] final  123.61 input   -0.00 | X-H torsion
[ 27279 11602 11601 11600 ] final  145.22 input    0.00 | X-H torsion
[ 27288 18684 18683 18682 ] final -158.63 input   -0.00 | X-H torsion

> <Gold.Protein.ActiveResidues>
 LYS309  TRP311  GLU314  MET341  HIS342  TRP414  ALA417  ARG419  CYS420  VAL421 
 GLY422  ARG423  LEU460  SER462  ALA463  SER482  GLN483  LEU484  ILE485  ARG486 
 ALA502  TRP566  TYR567  LEU569  PRO570  ALA571  VAL572  SER573  ASN574  MET575 
 PHE589  SER590  GLY591  TRP592  TYR593  MET594  GLU597  ILE598  ARG601  ASP602 
 ASP605  ARG608  TRP683  PHE696  HIS697  GLU699  TYR711  ASP714  HEM750  H4B760 

> <Gold.Protein.RotatedAtoms>
  219.8969    8.0091   19.3444 H   0  0  0  0  0  0  0  0  0  0  0  0  # atno 594  bound_to 544 
  221.1167    8.9623   18.7524 H   0  0  0  0  0  0  0  0  0  0  0  0  # atno 595  bound_to 544 
  220.5902    7.6535   17.8816 H   0  0  0  0  0  0  0  0  0  0  0  0  # atno 596  bound_to 544 
  227.6847    7.8386   20.6502 H   0  0  0  0  0  0  0  0  0  0  0  0  # atno 739  bound_to 695 
  224.3225   13.8535   26.2505 H   0  0  0  0  0  0  0  0  0  0  0  0  # atno 2556 bound_to 2523
  222.9259   15.3814   24.1939 H   0  0  0  0  0  0  0  0  0  0  0  0  # atno 2627 bound_to 2595
  229.2832   25.9595   21.8769 H   0  0  0  0  0  0  0  0  0  0  0  0  # atno 7426 bound_to 7411
  232.4191   28.0185   19.9849 H   0  0  0  0  0  0  0  0  0  0  0  0  # atno 7476 bound_to 7453
  234.2109   29.5645   20.1704 H   0  0  0  0  0  0  0  0  0  0  0  0  # atno 7522 bound_to 7511
  230.2965   34.3809   12.6857 H   0  0  0  0  0  0  0  0  0  0  0  0  # atno 10099 bound_to 10092
  226.5433   35.3858   11.7440 H   0  0  0  0  0  0  0  0  0  0  0  0  # atno 10139 bound_to 10129
  222.4781   18.6932    9.8158 H   0  0  0  0  0  0  0  0  0  0  0  0  # atno 11423 bound_to 11412
  221.9532   20.8968    8.9349 H   0  0  0  0  0  0  0  0  0  0  0  0  # atno 11475 bound_to 11457
  221.5630   24.0045    7.0992 H   0  0  0  0  0  0  0  0  0  0  0  0  # atno 11539 bound_to 11523
  223.1569   23.7143    5.0416 H   0  0  0  0  0  0  0  0  0  0  0  0  # atno 11615 bound_to 11599
  228.9866   20.2343    6.6155 H   0  0  0  0  0  0  0  0  0  0  0  0  # atno 16993 bound_to 16954
  226.7379   26.7101    7.6285 H   0  0  0  0  0  0  0  0  0  0  0  0  # atno 17193 bound_to 17173
  224.9036   26.7431   11.5141 H   0  0  0  0  0  0  0  0  0  0  0  0  # atno 17249 bound_to 17217
  220.9613   24.1752   11.6942 H   0  0  0  0  0  0  0  0  0  0  0  0  # atno 17301 bound_to 17279
  219.4347   23.4016   12.1660 H   0  0  0  0  0  0  0  0  0  0  0  0  # atno 17356 bound_to 17327
  220.8820   30.6037   11.4611 H   0  0  0  0  0  0  0  0  0  0  0  0  # atno 18241 bound_to 18201
  224.3130   31.3745   10.6682 H   0  0  0  0  0  0  0  0  0  0  0  0  # atno 18293 bound_to 18271
  226.3470   32.8455    9.2254 H   0  0  0  0  0  0  0  0  0  0  0  0  # atno 18297 bound_to 18276
  228.2403   31.2600   10.1946 H   0  0  0  0  0  0  0  0  0  0  0  0  # atno 18325 bound_to 18311
  232.4387   31.4483   11.3070 H   0  0  0  0  0  0  0  0  0  0  0  0  # atno 18407 bound_to 18359
  234.8204   28.8322    9.5070 H   0  0  0  0  0  0  0  0  0  0  0  0  # atno 18493 bound_to 18451
  230.1617   22.1709    8.5679 H   0  0  0  0  0  0  0  0  0  0  0  0  # atno 18501 bound_to 18462
  235.3645   25.3133   11.7780 H   0  0  0  0  0  0  0  0  0  0  0  0  # atno 18561 bound_to 18527
  224.3619   19.2866   21.5438 H   0  0  0  0  0  0  0  0  0  0  0  0  # atno 26082 bound_to 26043
  231.4244   11.8668   21.7136 H   0  0  0  0  0  0  0  0  0  0  0  0  # atno 27179 bound_to 27119
  229.9803   13.6655   25.3558 H   0  0  0  0  0  0  0  0  0  0  0  0  # atno 27181 bound_to 27121
  227.1190    6.2845   20.0930 LP  0  0  0  0  0  0  0  0  0  0  0  0  # atno 27200 bound_to 695 
  227.5050    8.2874   15.7405 LP  0  0  0  0  0  0  0  0  0  0  0  0  # atno 27201 bound_to 698 
  226.0730    7.3521   16.0136 LP  0  0  0  0  0  0  0  0  0  0  0  0  # atno 27202 bound_to 698 
  225.7398   13.3322   25.3755 LP  0  0  0  0  0  0  0  0  0  0  0  0  # atno 27203 bound_to 2523
  223.9120   17.4643   23.8510 LP  0  0  0  0  0  0  0  0  0  0  0  0  # atno 27204 bound_to 2526
  222.9579   17.5613   25.2933 LP  0  0  0  0  0  0  0  0  0  0  0  0  # atno 27205 bound_to 2526
  222.6894   14.3454   25.5843 LP  0  0  0  0  0  0  0  0  0  0  0  0  # atno 27206 bound_to 2595
  224.4039   20.8930   21.8019 LP  0  0  0  0  0  0  0  0  0  0  0  0  # atno 27210 bound_to 26043
  224.4673   20.3059   20.2794 LP  0  0  0  0  0  0  0  0  0  0  0  0  # atno 27211 bound_to 26043
  231.0424   12.8479   20.4723 LP  0  0  0  0  0  0  0  0  0  0  0  0  # atno 27214 bound_to 27119
  230.0268   11.6460   20.9090 LP  0  0  0  0  0  0  0  0  0  0  0  0  # atno 27215 bound_to 27119
  231.1458   24.9947   20.5571 LP  0  0  0  0  0  0  0  0  0  0  0  0  # atno 27228 bound_to 7328
  230.9672   23.6477   21.6311 LP  0  0  0  0  0  0  0  0  0  0  0  0  # atno 27229 bound_to 7328
  230.3380   26.8371   22.9548 LP  0  0  0  0  0  0  0  0  0  0  0  0  # atno 27230 bound_to 7411
  232.7366   26.5380   20.8585 LP  0  0  0  0  0  0  0  0  0  0  0  0  # atno 27231 bound_to 7453
  233.1519   28.9418   18.9292 LP  0  0  0  0  0  0  0  0  0  0  0  0  # atno 27232 bound_to 7511
  232.8285   33.1076   17.5292 LP  0  0  0  0  0  0  0  0  0  0  0  0  # atno 27233 bound_to 7514
  233.5902   34.0526   18.7649 LP  0  0  0  0  0  0  0  0  0  0  0  0  # atno 27234 bound_to 7514
  227.3468   29.0229    9.2151 LP  0  0  0  0  0  0  0  0  0  0  0  0  # atno 27236 bound_to 17124
  228.3506   28.1316   10.3097 LP  0  0  0  0  0  0  0  0  0  0  0  0  # atno 27237 bound_to 17124
  226.9765   26.0305    9.2193 LP  0  0  0  0  0  0  0  0  0  0  0  0  # atno 27238 bound_to 17173
  224.0205   26.4462   10.0297 LP  0  0  0  0  0  0  0  0  0  0  0  0  # atno 27239 bound_to 17217
  225.1684   28.8759   11.2380 LP  0  0  0  0  0  0  0  0  0  0  0  0  # atno 27240 bound_to 18204
  223.4674   28.7998   10.9205 LP  0  0  0  0  0  0  0  0  0  0  0  0  # atno 27241 bound_to 18204
  225.2099   31.7155   12.1240 LP  0  0  0  0  0  0  0  0  0  0  0  0  # atno 27242 bound_to 18271
  228.1789   33.5722   10.9143 LP  0  0  0  0  0  0  0  0  0  0  0  0  # atno 27243 bound_to 18274
  226.6482   33.2646   11.6642 LP  0  0  0  0  0  0  0  0  0  0  0  0  # atno 27244 bound_to 18274
  228.3961   30.4157   11.7196 LP  0  0  0  0  0  0  0  0  0  0  0  0  # atno 27245 bound_to 18311
  231.5480   31.6167    8.3655 LP  0  0  0  0  0  0  0  0  0  0  0  0  # atno 27246 bound_to 18314
  229.8537   31.7420    8.7027 LP  0  0  0  0  0  0  0  0  0  0  0  0  # atno 27247 bound_to 18314
  231.1488   30.4902   10.6162 LP  0  0  0  0  0  0  0  0  0  0  0  0  # atno 27248 bound_to 18359
  233.5511   29.5766   12.1906 LP  0  0  0  0  0  0  0  0  0  0  0  0  # atno 27249 bound_to 18362
  233.8437   27.8788   12.0119 LP  0  0  0  0  0  0  0  0  0  0  0  0  # atno 27250 bound_to 18362
  233.2799   28.0468    9.2598 LP  0  0  0  0  0  0  0  0  0  0  0  0  # atno 27251 bound_to 18451
  235.9158   26.9716   11.7881 LP  0  0  0  0  0  0  0  0  0  0  0  0  # atno 27252 bound_to 18527
  223.7548   24.5808    8.8986 LP  0  0  0  0  0  0  0  0  0  0  0  0  # atno 27257 bound_to 17176
  222.7461   25.9278    8.4884 LP  0  0  0  0  0  0  0  0  0  0  0  0  # atno 27258 bound_to 17176
  220.8951   27.5908   12.4445 LP  0  0  0  0  0  0  0  0  0  0  0  0  # atno 27259 bound_to 17220
  221.8274   27.8830   11.0143 LP  0  0  0  0  0  0  0  0  0  0  0  0  # atno 27260 bound_to 17220
  227.3401   26.1347    6.0923 LP  0  0  0  0  0  0  0  0  0  0  0  0  # atno 27261 bound_to 17050
  228.2271   25.8601    4.6302 LP  0  0  0  0  0  0  0  0  0  0  0  0  # atno 27262 bound_to 17050
  230.9560   21.5820    7.2756 LP  0  0  0  0  0  0  0  0  0  0  0  0  # atno 27263 bound_to 18462
  230.0000   22.8967    7.1205 LP  0  0  0  0  0  0  0  0  0  0  0  0  # atno 27264 bound_to 18462
  221.9271   29.2353   11.7668 LP  0  0  0  0  0  0  0  0  0  0  0  0  # atno 27265 bound_to 18201
  225.1208   32.3190    8.2934 LP  0  0  0  0  0  0  0  0  0  0  0  0  # atno 27266 bound_to 18276
  226.6484   32.3152    7.7164 LP  0  0  0  0  0  0  0  0  0  0  0  0  # atno 27267 bound_to 18276
  230.7458   35.6904   13.5407 LP  0  0  0  0  0  0  0  0  0  0  0  0  # atno 27268 bound_to 10092
  230.9381   35.6648   11.9192 LP  0  0  0  0  0  0  0  0  0  0  0  0  # atno 27269 bound_to 10092
  224.2252   33.2963   10.5221 LP  0  0  0  0  0  0  0  0  0  0  0  0  # atno 27270 bound_to 10132
  224.2900   33.5442   12.2351 LP  0  0  0  0  0  0  0  0  0  0  0  0  # atno 27271 bound_to 10132
  222.2335   22.5318   11.0998 LP  0  0  0  0  0  0  0  0  0  0  0  0  # atno 27272 bound_to 11410
  220.5582   22.9278   11.2914 LP  0  0  0  0  0  0  0  0  0  0  0  0  # atno 27273 bound_to 11410
  221.5402   25.7749   11.3077 LP  0  0  0  0  0  0  0  0  0  0  0  0  # atno 27274 bound_to 17279
  227.5466   19.9645    5.9077 LP  0  0  0  0  0  0  0  0  0  0  0  0  # atno 27275 bound_to 16954
  227.7558   21.2680    6.8688 LP  0  0  0  0  0  0  0  0  0  0  0  0  # atno 27276 bound_to 16954
  220.5139   21.8670    8.6951 LP  0  0  0  0  0  0  0  0  0  0  0  0  # atno 27277 bound_to 11457
  223.0378   24.9369    7.0330 LP  0  0  0  0  0  0  0  0  0  0  0  0  # atno 27278 bound_to 11523
  225.8980   21.3959    5.2197 LP  0  0  0  0  0  0  0  0  0  0  0  0  # atno 27279 bound_to 11602
  226.5344   22.8738    4.5788 LP  0  0  0  0  0  0  0  0  0  0  0  0  # atno 27280 bound_to 11602
  223.6710   25.2237    4.3308 LP  0  0  0  0  0  0  0  0  0  0  0  0  # atno 27283 bound_to 11599
  221.4647   19.2564    8.6734 LP  0  0  0  0  0  0  0  0  0  0  0  0  # atno 27286 bound_to 11412
  221.2609   17.7543    9.2808 LP  0  0  0  0  0  0  0  0  0  0  0  0  # atno 27287 bound_to 11412
  234.6419   17.7334   10.1376 LP  0  0  0  0  0  0  0  0  0  0  0  0  # atno 27288 bound_to 18684
  233.7185   18.2371   11.5137 LP  0  0  0  0  0  0  0  0  0  0  0  0  # atno 27289 bound_to 18684

> <Gold.Score>
     Fitness  S(hb_ext) S(vdw_ext)  S(hb_int)    S(int)      intcor
     44.21       1.77      32.05       0.00      -1.62      -0.77

> <Gold.Goldscore.Fitness>
44.2104

> <Gold.Goldscore.Internal.Vdw>
-1.8082

> <Gold.Goldscore.Internal.Torsion>
-0.5763

> <Gold.Goldscore.External.Vdw>
32.0465

> <Gold.Goldscore.Internal.HBond>
0.0000

> <Gold.Goldscore.External.HBond>
1.7657

> <Gold.Goldscore.Internal.Correction>
-0.7653

> <Gold.Goldscore.Hbonds>
donor molecule, donor type, donor heavy atom, donor atom, acceptor molecule, acceptor atom, score
      P1  H 17217 17249       L1    11  0.27
      L1  H     8    22       P1 18689  0.01
      L1  H    10    23       P1 18311  0.19

> <Gold.Goldscore.Internal.Vdw.Weighted>
-1.8082

> <Gold.Goldscore.Internal.Torsion.Weighted>
-0.5763

> <Gold.Goldscore.External.Vdw.Weighted>
44.0640

> <Gold.Goldscore.Internal.HBond.Weighted>
0.0000

> <Gold.Goldscore.External.HBond.Weighted>
1.7657

> <Gold.Goldscore.Internal.Correction.Weighted>
-0.7653

> <Gold.Rescore>
     Score     S(PLP)   S(hbond)     S(cho)   S(metal)  DE(clash)   DE(tors)     intcor
     32.54     -32.00       1.17       0.00       0.00       0.00       1.48       ----

> <Gold.PLP.Fitness>
32.5397

> <Gold.PLP.PLP>
-31.9968

> <Gold.PLP.part.hbond>
-3.9921

> <Gold.PLP.part.metal>
0.0000

> <Gold.PLP.part.buried>
12.4181

> <Gold.PLP.part.nonpolar>
-41.5863

> <Gold.PLP.part.repulsive>
2.3898

> <Gold.PLP.ligand.clash>
0.0000

> <Gold.PLP.ligand.torsion>
1.4805

> <Gold.PLP.Chemscore.Hbond>
1.1680

> <Gold.PLP.Chemscore.CHOScore>
0.0000

> <Gold.PLP.Chemscore.Metal>
0.0000

> <Gold.Chemscore.Hbonds>
donor molecule, donor type, donor heavy atom, donor atom, acceptor molecule, acceptor atom, score
      L1  H     8    22       P1 18689  0.04
      L1  H    10    23       P1 18311  0.15

> <Gold.PLP.Chemscore.Internal.Correction>
   9.000000E+99

#       Name:                CT1002167954
#       Creating user name   hitesit
#       Creation time:       Sun Apr 16 22:59:50 2023


#       File generated by GOLD software.
#

@<TRIPOS>MOLECULE
CT1002167954|ligand_prepared|mol2|1|dock4
    29    30     1
SMALL
NO_CHARGES


@<TRIPOS>ATOM
      1 C1         229.4570  19.9881  12.2067 C.3            1 RES1               0.0000
      2 C2         228.2317  20.6291  12.8897 C.ar           1 RES1               0.0000
      3 C3         229.0651  18.5485  11.8872 C.2            1 RES1               0.0000
      4 C4         229.7540  20.8395  10.9772 C.2            1 RES1               0.0000
      5 C5         230.7255  19.9671  13.0911 C.3            1 RES1               0.0000
      6 C6         226.9544  20.1195  12.6766 C.ar           1 RES1               0.0000
      7 C7         228.3630  21.7268  13.7361 C.ar           1 RES1               0.0000
      8 N8         228.8079  18.2380  10.5844 N.am           1 RES1               0.0000
      9 O9         228.9450  17.7080  12.7700 O.2            1 RES1               0.0000
     10 N10        229.5938  20.2642   9.7439 N.am           1 RES1               0.0000
     11 O11        230.1093  22.0084  11.0651 O.2            1 RES1               0.0000
     12 C12        231.8199  19.0481  12.5717 C.3            1 RES1               0.0000
     13 C13        225.8486  20.6848  13.2898 C.ar           1 RES1               0.0000
     14 C14        227.2558  22.2908  14.3481 C.ar           1 RES1               0.0000
     15 C15        229.1046  19.0116   9.4912 C.2            1 RES1               0.0000
     16 C16        225.9985  21.7705  14.1262 C.ar           1 RES1               0.0000
     17 O17        228.9378  18.5845   8.3524 O.2            1 RES1               0.0000
     18 H18        231.1242  20.9867  13.1608 H              1 RES1               0.0000
     19 H19        230.4457  19.6466  14.1022 H              1 RES1               0.0000
     20 H20        226.8165  19.2671  12.0198 H              1 RES1               0.0000
     21 H21        229.3422  22.1536  13.9245 H              1 RES1               0.0000
     22 H22        228.3527  17.3483  10.4065 H              1 RES1               0.0000
     23 H23        229.8643  20.8214   8.9397 H              1 RES1               0.0000
     24 H24        232.6867  19.0708  13.2288 H              1 RES1               0.0000
     25 H25        231.4657  18.0210  12.5134 H              1 RES1               0.0000
     26 H26        232.1401  19.3531  11.5775 H              1 RES1               0.0000
     27 H27        224.8611  20.2724  13.1108 H              1 RES1               0.0000
     28 H28        227.3784  23.1456  15.0051 H              1 RES1               0.0000
     29 H29        225.1322  22.2129  14.6067 H              1 RES1               0.0000
@<TRIPOS>BOND
    1    1    2 1     
    2    1    3 1     
    3    1    4 1     
    4    1    5 1     
    5    2    6 ar    
    6    2    7 ar    
    7    3    8 1     
    8    3    9 2     
    9    4   10 1     
   10    4   11 2     
   11    5   12 1     
   12    5   18 1     
   13    5   19 1     
   14    6   13 ar    
   15    6   20 1     
   16    7   14 ar    
   17    7   21 1     
   18    8   15 1     
   19    8   22 1     
   20   10   15 1     
   21   10   23 1     
   22   12   24 1     
   23   12   25 1     
   24   12   26 1     
   25   13   16 ar    
   26   13   27 1     
   27   14   16 ar    
   28   14   28 1     
   29   15   17 2     
   30   16   29 1     
@<TRIPOS>SUBSTRUCTURE
      1 RES1           1
@<TRIPOS>SET
DONOR_HYDROGENS      STATIC     ATOMS    <user>   **** ""
2 22 23
ATOM$RED        STATIC     ATOMS    COLORGROUP SYSTEM
2 22 23
@<TRIPOS>COMMENT
> <Gold.Version>
2022.3.0

> <Gold.Id.Protein>
unknown|4v3u_clean|pdb

> <Gold.Protein.RotatedTorsions>
[  594  544  543  542 ] final    2.93 input   59.98 | X-H torsion
[  739  695  696  697 ] final  -42.38 input   98.51 | X-H torsion
[ 2556 2523 2524 2525 ] final  -29.84 input  111.11 | X-H torsion
[ 2627 2595 2596 2597 ] final  -90.70 input   53.40 | X-H torsion
[ 26082 26043 26042 26040 ] final  132.72 input   60.02 | X-H torsion
[ 27179 27119 27118 27114 ] final   18.65 input   60.01 | X-H torsion
[ 7426 7411 7412 7413 ] final    0.43 input   83.97 | X-H torsion
[ 7476 7453 7454 7455 ] final -115.60 input   94.79 | X-H torsion
[ 7522 7511 7512 7513 ] final  -10.73 input   85.82 | X-H torsion
[ 17193 17173 17174 17175 ] final  -70.84 input   42.33 | X-H torsion
[ 17249 17217 17218 17219 ] final -163.69 input  107.71 | X-H torsion
[ 18293 18271 18272 18273 ] final   36.54 input   26.15 | X-H torsion
[ 18325 18311 18312 18313 ] final   43.96 input   53.27 | X-H torsion
[ 18407 18359 18360 18361 ] final   83.50 input   33.85 | X-H torsion
[ 18493 18451 18452 18453 ] final  150.29 input  113.35 | X-H torsion
[ 18561 18527 18528 18529 ] final  -45.14 input   85.91 | X-H torsion
[ 18501 18462 18461 18459 ] final -161.98 input   59.98 | X-H torsion
[ 18241 18201 18202 18203 ] final  128.93 input   44.19 | X-H torsion
[ 18297 18276 18275 18272 ] final  -16.99 input   59.98 | X-H torsion
[ 10099 10092 10091 10088 ] final  -77.57 input   59.98 | X-H torsion
[ 17301 17279 17280 17281 ] final  -63.48 input   44.55 | X-H torsion
[ 16993 16954 16953 16951 ] final   50.40 input   59.99 | X-H torsion
[ 11475 11457 11458 11459 ] final -169.55 input   48.15 | X-H torsion
[ 11539 11523 11524 11525 ] final  104.07 input  117.79 | X-H torsion
[ 11615 11599 11600 11601 ] final   50.88 input   58.98 | X-H torsion
[ 11423 11412 11411 11408 ] final -127.05 input   60.01 | X-H torsion
[ 27181 27121 27120 27118 ] final  108.11 input   60.02 | X-H torsion
[ 10139 10129 10130 10131 ] final   57.84 input   28.23 | X-H torsion
[ 17356 17327 17328 17329 ] final  -49.86 input   73.50 | X-H torsion
[ 27201  698  697  696 ] final  125.15 input    0.00 | X-H torsion
[ 27204 2526 2525 2524 ] final -125.55 input    0.00 | X-H torsion
[ 27228 7328 7327 7326 ] final    6.38 input    0.00 | X-H torsion
[ 27233 7514 7513 7512 ] final    8.56 input    0.00 | X-H torsion
[ 27236 17124 17123 17122 ] final   50.92 input    0.00 | X-H torsion
[ 27240 18204 18203 18202 ] final   -7.47 input    0.00 | X-H torsion
[ 27243 18274 18273 18272 ] final  112.18 input    0.00 | X-H torsion
[ 27246 18314 18313 18312 ] final -160.27 input   -0.00 | X-H torsion
[ 27249 18362 18361 18360 ] final   25.71 input    0.00 | X-H torsion
[ 27257 17176 17175 17174 ] final -123.43 input   -0.00 | X-H torsion
[ 27259 17220 17219 17218 ] final -116.35 input   -0.00 | X-H torsion
[ 27261 17050 17049 17048 ] final -120.41 input    0.00 | X-H torsion
[ 27270 10132 10131 10130 ] final  -83.66 input    0.00 | X-H torsion
[ 27272 11410 11409 11408 ] final -129.72 input   -0.00 | X-H torsion
[ 27279 11602 11601 11600 ] final   41.89 input    0.00 | X-H torsion
[ 27288 18684 18683 18682 ] final  112.27 input   -0.00 | X-H torsion

> <Gold.Protein.ActiveResidues>
 LYS309  TRP311  GLU314  MET341  HIS342  TRP414  ALA417  ARG419  CYS420  VAL421 
 GLY422  ARG423  LEU460  SER462  ALA463  SER482  GLN483  LEU484  ILE485  ARG486 
 ALA502  TRP566  TYR567  LEU569  PRO570  ALA571  VAL572  SER573  ASN574  MET575 
 PHE589  SER590  GLY591  TRP592  TYR593  MET594  GLU597  ILE598  ARG601  ASP602 
 ASP605  ARG608  TRP683  PHE696  HIS697  GLU699  TYR711  ASP714  HEM750  H4B760 

> <Gold.Protein.RotatedAtoms>
  220.6608    8.8850   19.3243 H   0  0  0  0  0  0  0  0  0  0  0  0  # atno 594  bound_to 544 
  221.0741    8.2086   17.8689 H   0  0  0  0  0  0  0  0  0  0  0  0  # atno 595  bound_to 544 
  219.8695    7.5322   18.7854 H   0  0  0  0  0  0  0  0  0  0  0  0  # atno 596  bound_to 544 
  227.3713    6.2614   19.9929 H   0  0  0  0  0  0  0  0  0  0  0  0  # atno 739  bound_to 695 
  224.6190   14.0773   26.4115 H   0  0  0  0  0  0  0  0  0  0  0  0  # atno 2556 bound_to 2523
  223.1857   15.5536   25.2977 H   0  0  0  0  0  0  0  0  0  0  0  0  # atno 2627 bound_to 2595
  230.5093   26.5976   22.9210 H   0  0  0  0  0  0  0  0  0  0  0  0  # atno 7426 bound_to 7411
  232.3854   27.3456   21.2873 H   0  0  0  0  0  0  0  0  0  0  0  0  # atno 7476 bound_to 7453
  233.4215   29.7459   20.2269 H   0  0  0  0  0  0  0  0  0  0  0  0  # atno 7522 bound_to 7511
  230.2979   34.3808   12.6743 H   0  0  0  0  0  0  0  0  0  0  0  0  # atno 10099 bound_to 10092
  226.5196   34.6727   10.4576 H   0  0  0  0  0  0  0  0  0  0  0  0  # atno 10139 bound_to 10129
  221.3013   17.7414    9.3252 H   0  0  0  0  0  0  0  0  0  0  0  0  # atno 11423 bound_to 11412
  221.6109   21.4099    9.6153 H   0  0  0  0  0  0  0  0  0  0  0  0  # atno 11475 bound_to 11457
  222.8588   25.1499    7.1950 H   0  0  0  0  0  0  0  0  0  0  0  0  # atno 11539 bound_to 11523
  224.1280   24.3974    5.1951 H   0  0  0  0  0  0  0  0  0  0  0  0  # atno 11615 bound_to 11599
  227.4122   21.1032    6.6284 H   0  0  0  0  0  0  0  0  0  0  0  0  # atno 16993 bound_to 16954
  227.1059   26.2376    9.2680 H   0  0  0  0  0  0  0  0  0  0  0  0  # atno 17193 bound_to 17173
  225.0484   25.9304   10.8442 H   0  0  0  0  0  0  0  0  0  0  0  0  # atno 17249 bound_to 17217
  221.1428   25.2318   12.3340 H   0  0  0  0  0  0  0  0  0  0  0  0  # atno 17301 bound_to 17279
  218.6931   24.8865   12.7419 H   0  0  0  0  0  0  0  0  0  0  0  0  # atno 17356 bound_to 17327
  221.1855   29.9594   12.4717 H   0  0  0  0  0  0  0  0  0  0  0  0  # atno 18241 bound_to 18201
  225.0427   32.3715   11.3107 H   0  0  0  0  0  0  0  0  0  0  0  0  # atno 18293 bound_to 18271
  225.8091   32.7873    9.2727 H   0  0  0  0  0  0  0  0  0  0  0  0  # atno 18297 bound_to 18276
  228.7667   30.0806   10.8055 H   0  0  0  0  0  0  0  0  0  0  0  0  # atno 18325 bound_to 18311
  232.4502   31.3903   11.3573 H   0  0  0  0  0  0  0  0  0  0  0  0  # atno 18407 bound_to 18359
  233.7411   28.0027    8.6746 H   0  0  0  0  0  0  0  0  0  0  0  0  # atno 18493 bound_to 18451
  230.5089   22.3643    6.7428 H   0  0  0  0  0  0  0  0  0  0  0  0  # atno 18501 bound_to 18462
  235.9524   25.9852   10.9721 H   0  0  0  0  0  0  0  0  0  0  0  0  # atno 18561 bound_to 18527
  224.3890   20.7438   21.9409 H   0  0  0  0  0  0  0  0  0  0  0  0  # atno 26082 bound_to 26043
  231.5158   12.7497   20.9165 H   0  0  0  0  0  0  0  0  0  0  0  0  # atno 27179 bound_to 27119
  228.7591   13.3791   24.8284 H   0  0  0  0  0  0  0  0  0  0  0  0  # atno 27181 bound_to 27121
  227.4276    7.8374   20.7402 LP  0  0  0  0  0  0  0  0  0  0  0  0  # atno 27200 bound_to 695 
  227.5818    8.0793   15.6444 LP  0  0  0  0  0  0  0  0  0  0  0  0  # atno 27201 bound_to 698 
  225.9962    7.5602   16.1098 LP  0  0  0  0  0  0  0  0  0  0  0  0  # atno 27202 bound_to 698 
  225.4480   13.1119   25.2171 LP  0  0  0  0  0  0  0  0  0  0  0  0  # atno 27203 bound_to 2523
  223.1050   17.5673   25.3710 LP  0  0  0  0  0  0  0  0  0  0  0  0  # atno 27204 bound_to 2526
  223.7649   17.4583   23.7733 LP  0  0  0  0  0  0  0  0  0  0  0  0  # atno 27205 bound_to 2526
  222.4378   14.1785   24.5152 LP  0  0  0  0  0  0  0  0  0  0  0  0  # atno 27206 bound_to 2595
  224.4709   20.5037   20.3333 LP  0  0  0  0  0  0  0  0  0  0  0  0  # atno 27210 bound_to 26043
  224.3729   19.2282   21.3482 LP  0  0  0  0  0  0  0  0  0  0  0  0  # atno 27211 bound_to 26043
  230.0773   12.1336   20.4688 LP  0  0  0  0  0  0  0  0  0  0  0  0  # atno 27214 bound_to 27119
  230.8999   11.4717   21.7146 LP  0  0  0  0  0  0  0  0  0  0  0  0  # atno 27215 bound_to 27119
  230.7643   23.6100   21.4926 LP  0  0  0  0  0  0  0  0  0  0  0  0  # atno 27228 bound_to 7328
  231.3487   25.0324   20.6956 LP  0  0  0  0  0  0  0  0  0  0  0  0  # atno 27229 bound_to 7328
  229.1298   26.2084   21.9259 LP  0  0  0  0  0  0  0  0  0  0  0  0  # atno 27230 bound_to 7411
  232.7695   27.1941   19.5886 LP  0  0  0  0  0  0  0  0  0  0  0  0  # atno 27231 bound_to 7453
  233.9258   28.7639   18.8738 LP  0  0  0  0  0  0  0  0  0  0  0  0  # atno 27232 bound_to 7511
  233.3772   33.1254   17.4294 LP  0  0  0  0  0  0  0  0  0  0  0  0  # atno 27233 bound_to 7514
  233.0415   34.0347   18.8648 LP  0  0  0  0  0  0  0  0  0  0  0  0  # atno 27234 bound_to 7514
  228.2921   28.9456    9.1161 LP  0  0  0  0  0  0  0  0  0  0  0  0  # atno 27236 bound_to 17124
  227.4053   28.2089   10.4087 LP  0  0  0  0  0  0  0  0  0  0  0  0  # atno 27237 bound_to 17124
  226.6156   26.4938    7.6117 LP  0  0  0  0  0  0  0  0  0  0  0  0  # atno 27238 bound_to 17173
  223.8814   27.2267   10.6732 LP  0  0  0  0  0  0  0  0  0  0  0  0  # atno 27239 bound_to 17217
  223.5498   28.7069   11.4572 LP  0  0  0  0  0  0  0  0  0  0  0  0  # atno 27240 bound_to 18204
  225.0860   28.9688   10.7013 LP  0  0  0  0  0  0  0  0  0  0  0  0  # atno 27241 bound_to 18204
  224.4874   30.7283   11.4878 LP  0  0  0  0  0  0  0  0  0  0  0  0  # atno 27242 bound_to 18271
  227.5872   33.2774   12.1259 LP  0  0  0  0  0  0  0  0  0  0  0  0  # atno 27243 bound_to 18274
  227.2399   33.5595   10.4526 LP  0  0  0  0  0  0  0  0  0  0  0  0  # atno 27244 bound_to 18274
  227.8861   31.5583   11.1278 LP  0  0  0  0  0  0  0  0  0  0  0  0  # atno 27245 bound_to 18311
  231.2819   31.0778    8.3093 LP  0  0  0  0  0  0  0  0  0  0  0  0  # atno 27246 bound_to 18314
  230.1199   32.2810    8.7590 LP  0  0  0  0  0  0  0  0  0  0  0  0  # atno 27247 bound_to 18314
  231.1376   30.5465   10.5673 LP  0  0  0  0  0  0  0  0  0  0  0  0  # atno 27248 bound_to 18359
  232.9972   29.2344   12.1551 LP  0  0  0  0  0  0  0  0  0  0  0  0  # atno 27249 bound_to 18362
  234.3976   28.2210   12.0474 LP  0  0  0  0  0  0  0  0  0  0  0  0  # atno 27250 bound_to 18362
  234.3372   28.8594   10.0752 LP  0  0  0  0  0  0  0  0  0  0  0  0  # atno 27251 bound_to 18451
  235.3413   26.3149   12.5758 LP  0  0  0  0  0  0  0  0  0  0  0  0  # atno 27252 bound_to 18527
  222.5341   25.5808    9.0545 LP  0  0  0  0  0  0  0  0  0  0  0  0  # atno 27257 bound_to 17176
  223.9667   24.9278    8.3325 LP  0  0  0  0  0  0  0  0  0  0  0  0  # atno 27258 bound_to 17176
  220.8801   27.5882   12.4340 LP  0  0  0  0  0  0  0  0  0  0  0  0  # atno 27259 bound_to 17220
  221.8424   27.8856   11.0249 LP  0  0  0  0  0  0  0  0  0  0  0  0  # atno 27260 bound_to 17220
  227.2096   26.3214    5.9230 LP  0  0  0  0  0  0  0  0  0  0  0  0  # atno 27261 bound_to 17050
  228.3576   25.6734    4.7995 LP  0  0  0  0  0  0  0  0  0  0  0  0  # atno 27262 bound_to 17050
  229.8046   22.7879    8.1472 LP  0  0  0  0  0  0  0  0  0  0  0  0  # atno 27263 bound_to 18462
  230.8015   21.4959    8.0874 LP  0  0  0  0  0  0  0  0  0  0  0  0  # atno 27264 bound_to 18462
  221.6318   29.8621   10.7836 LP  0  0  0  0  0  0  0  0  0  0  0  0  # atno 27265 bound_to 18201
  225.3712   32.1772    7.8287 LP  0  0  0  0  0  0  0  0  0  0  0  0  # atno 27266 bound_to 18276
  226.9393   32.5156    8.1335 LP  0  0  0  0  0  0  0  0  0  0  0  0  # atno 27267 bound_to 18276
  230.7412   35.6812   13.5460 LP  0  0  0  0  0  0  0  0  0  0  0  0  # atno 27268 bound_to 10092
  230.9413   35.6742   11.9254 LP  0  0  0  0  0  0  0  0  0  0  0  0  # atno 27269 bound_to 10092
  224.0523   33.2602   10.5526 LP  0  0  0  0  0  0  0  0  0  0  0  0  # atno 27270 bound_to 10132
  224.4628   33.5804   12.2046 LP  0  0  0  0  0  0  0  0  0  0  0  0  # atno 27271 bound_to 10132
  221.2418   23.4123   10.6853 LP  0  0  0  0  0  0  0  0  0  0  0  0  # atno 27272 bound_to 11410
  221.5499   22.0473   11.7060 LP  0  0  0  0  0  0  0  0  0  0  0  0  # atno 27273 bound_to 11410
  221.3611   24.7327   10.6767 LP  0  0  0  0  0  0  0  0  0  0  0  0  # atno 27274 bound_to 17279
  228.9459   20.6112    6.8591 LP  0  0  0  0  0  0  0  0  0  0  0  0  # atno 27275 bound_to 16954
  227.9426   19.7460    5.9044 LP  0  0  0  0  0  0  0  0  0  0  0  0  # atno 27276 bound_to 16954
  220.8431   21.3736    8.0407 LP  0  0  0  0  0  0  0  0  0  0  0  0  # atno 27277 bound_to 11457
  221.7658   23.8125    6.9390 LP  0  0  0  0  0  0  0  0  0  0  0  0  # atno 27278 bound_to 11523
  225.8066   22.7444    5.3583 LP  0  0  0  0  0  0  0  0  0  0  0  0  # atno 27279 bound_to 11602
  226.6259   21.5254    4.4402 LP  0  0  0  0  0  0  0  0  0  0  0  0  # atno 27280 bound_to 11602
  222.7162   24.5522    4.1799 LP  0  0  0  0  0  0  0  0  0  0  0  0  # atno 27283 bound_to 11599
  222.4907   18.7490    9.7935 LP  0  0  0  0  0  0  0  0  0  0  0  0  # atno 27286 bound_to 11412
  221.4193   19.2196    8.6545 LP  0  0  0  0  0  0  0  0  0  0  0  0  # atno 27287 bound_to 11412
  233.6053   18.3488   10.2897 LP  0  0  0  0  0  0  0  0  0  0  0  0  # atno 27288 bound_to 18684
  234.7552   17.6217   11.3616 LP  0  0  0  0  0  0  0  0  0  0  0  0  # atno 27289 bound_to 18684

> <Gold.Score>
     Fitness  S(hb_ext) S(vdw_ext)  S(hb_int)    S(int)      intcor
     40.19       5.76      25.84       0.00      -1.09      -0.77

> <Gold.Goldscore.Fitness>
40.1914

> <Gold.Goldscore.Internal.Vdw>
-1.1725

> <Gold.Goldscore.Internal.Torsion>
-0.6847

> <Gold.Goldscore.External.Vdw>
25.8376

> <Gold.Goldscore.Internal.HBond>
0.0000

> <Gold.Goldscore.External.HBond>
5.7568

> <Gold.Goldscore.Internal.Correction>
-0.7653

> <Gold.Goldscore.Hbonds>
donor molecule, donor type, donor heavy atom, donor atom, acceptor molecule, acceptor atom, score
      P1  H 19343 19392       L1    17  0.71
      L1  H    10    23       P1 18462  0.74

> <Gold.Goldscore.Internal.Vdw.Weighted>
-1.1725

> <Gold.Goldscore.Internal.Torsion.Weighted>
-0.6847

> <Gold.Goldscore.External.Vdw.Weighted>
35.5266

> <Gold.Goldscore.Internal.HBond.Weighted>
0.0000

> <Gold.Goldscore.External.HBond.Weighted>
5.7568

> <Gold.Goldscore.Internal.Correction.Weighted>
-0.7653

> <Gold.Rescore>
     Score     S(PLP)   S(hbond)     S(cho)   S(metal)  DE(clash)   DE(tors)     intcor
     29.45     -28.15       1.34       0.00       0.00       1.76       0.48       ----

> <Gold.PLP.Fitness>
29.4466

> <Gold.PLP.PLP>
-28.1497

> <Gold.PLP.part.hbond>
-4.6710

> <Gold.PLP.part.metal>
0.0000

> <Gold.PLP.part.buried>
-3.0039

> <Gold.PLP.part.nonpolar>
-21.9971

> <Gold.PLP.part.repulsive>
0.9629

> <Gold.PLP.ligand.clash>
1.7621

> <Gold.PLP.ligand.torsion>
0.4796

> <Gold.PLP.Chemscore.Hbond>
1.3394

> <Gold.PLP.Chemscore.CHOScore>
0.0000

> <Gold.PLP.Chemscore.Metal>
0.0000

> <Gold.Chemscore.Hbonds>
donor molecule, donor type, donor heavy atom, donor atom, acceptor molecule, acceptor atom, score
      L1  H    10    23       P1 18462  0.89
      P1  H 19343 19392       L1    17  0.70

> <Gold.PLP.Chemscore.Internal.Correction>
   9.000000E+99

#       Name:                CT1002167954
#       Creating user name   hitesit
#       Creation time:       Sun Apr 16 22:59:52 2023


#       File generated by GOLD software.
#

@<TRIPOS>MOLECULE
CT1002167954|ligand_prepared|mol2|1|dock7
    29    30     1
SMALL
NO_CHARGES


@<TRIPOS>ATOM
      1 C1         229.4064  19.8568  12.4009 C.3            1 RES1               0.0000
      2 C2         228.1416  20.5005  13.0049 C.ar           1 RES1               0.0000
      3 C3         229.0165  18.4357  12.0049 C.2            1 RES1               0.0000
      4 C4         229.8154  20.7397  11.2270 C.2            1 RES1               0.0000
      5 C5         230.5995  19.7834  13.3820 C.3            1 RES1               0.0000
      6 C6         228.2323  21.6616  13.7667 C.ar           1 RES1               0.0000
      7 C7         226.8793  19.9474  12.8070 C.ar           1 RES1               0.0000
      8 N8         228.8589  18.1707  10.6764 N.am           1 RES1               0.0000
      9 O9         228.8117  17.5709  12.8478 O.2            1 RES1               0.0000
     10 N10        229.7444  20.2060   9.9669 N.am           1 RES1               0.0000
     11 O11        230.1827  21.8980  11.3806 O.2            1 RES1               0.0000
     12 C12        231.7998  19.0288  12.8324 C.3            1 RES1               0.0000
     13 C13        227.1017  22.2501  14.3087 C.ar           1 RES1               0.0000
     14 C14        225.7500  20.5374  13.3501 C.ar           1 RES1               0.0000
     15 C15        229.2555  18.9717   9.6358 C.2            1 RES1               0.0000
     16 C16        225.8599  21.6888  14.1005 C.ar           1 RES1               0.0000
     17 O17        229.1729  18.5833   8.4741 O.2            1 RES1               0.0000
     18 H18        230.9105  20.8041  13.6367 H              1 RES1               0.0000
     19 H19        230.2675  19.2938  14.3058 H              1 RES1               0.0000
     20 H20        229.2013  22.1163  13.9434 H              1 RES1               0.0000
     21 H21        226.7690  19.0413  12.2210 H              1 RES1               0.0000
     22 H22        228.4042  17.2961  10.4343 H              1 RES1               0.0000
     23 H23        230.0879  20.7822   9.2052 H              1 RES1               0.0000
     24 H24        232.6081  19.0071  13.5603 H              1 RES1               0.0000
     25 H25        231.5327  18.0019  12.5919 H              1 RES1               0.0000
     26 H26        232.1719  19.5032  11.9267 H              1 RES1               0.0000
     27 H27        227.1937  23.1554  14.8996 H              1 RES1               0.0000
     28 H28        224.7747  20.0918  13.1841 H              1 RES1               0.0000
     29 H29        224.9743  22.1502  14.5248 H              1 RES1               0.0000
@<TRIPOS>BOND
    1    1    2 1     
    2    1    3 1     
    3    1    4 1     
    4    1    5 1     
    5    2    6 ar    
    6    2    7 ar    
    7    3    8 1     
    8    3    9 2     
    9    4   10 1     
   10    4   11 2     
   11    5   12 1     
   12    5   18 1     
   13    5   19 1     
   14    6   13 ar    
   15    6   20 1     
   16    7   14 ar    
   17    7   21 1     
   18    8   15 1     
   19    8   22 1     
   20   10   15 1     
   21   10   23 1     
   22   12   24 1     
   23   12   25 1     
   24   12   26 1     
   25   13   16 ar    
   26   13   27 1     
   27   14   16 ar    
   28   14   28 1     
   29   15   17 2     
   30   16   29 1     
@<TRIPOS>SUBSTRUCTURE
      1 RES1           1
@<TRIPOS>SET
DONOR_HYDROGENS      STATIC     ATOMS    <user>   **** ""
2 22 23
ATOM$RED        STATIC     ATOMS    COLORGROUP SYSTEM
2 22 23
@<TRIPOS>COMMENT
> <Gold.Version>
2022.3.0

> <Gold.Id.Protein>
unknown|4v3u_clean|pdb

> <Gold.Protein.RotatedTorsions>
[  594  544  543  542 ] final -119.48 input   59.98 | X-H torsion
[  739  695  696  697 ] final   90.40 input   98.51 | X-H torsion
[ 2556 2523 2524 2525 ] final  -61.65 input  111.11 | X-H torsion
[ 2627 2595 2596 2597 ] final  141.24 input   53.40 | X-H torsion
[ 26082 26043 26042 26040 ] final   18.82 input   60.02 | X-H torsion
[ 27179 27119 27118 27114 ] final  105.32 input   60.01 | X-H torsion
[ 7426 7411 7412 7413 ] final  -31.25 input   83.97 | X-H torsion
[ 7476 7453 7454 7455 ] final -154.35 input   94.79 | X-H torsion
[ 7522 7511 7512 7513 ] final   52.71 input   85.82 | X-H torsion
[ 17193 17173 17174 17175 ] final -156.53 input   42.33 | X-H torsion
[ 17249 17217 17218 17219 ] final -175.60 input  107.71 | X-H torsion
[ 18293 18271 18272 18273 ] final   13.09 input   26.15 | X-H torsion
[ 18325 18311 18312 18313 ] final -130.12 input   53.27 | X-H torsion
[ 18407 18359 18360 18361 ] final  164.37 input   33.85 | X-H torsion
[ 18493 18451 18452 18453 ] final  125.52 input  113.35 | X-H torsion
[ 18561 18527 18528 18529 ] final  -21.48 input   85.91 | X-H torsion
[ 18501 18462 18461 18459 ] final -113.69 input   59.98 | X-H torsion
[ 18241 18201 18202 18203 ] final -165.95 input   44.19 | X-H torsion
[ 18297 18276 18275 18272 ] final -134.39 input   59.98 | X-H torsion
[ 10099 10092 10091 10088 ] final  128.57 input   59.98 | X-H torsion
[ 17301 17279 17280 17281 ] final  -87.53 input   44.55 | X-H torsion
[ 16993 16954 16953 16951 ] final   97.08 input   59.99 | X-H torsion
[ 11475 11457 11458 11459 ] final   86.49 input   48.15 | X-H torsion
[ 11539 11523 11524 11525 ] final   74.38 input  117.79 | X-H torsion
[ 11615 11599 11600 11601 ] final    0.52 input   58.98 | X-H torsion
[ 11423 11412 11411 11408 ] final  -40.50 input   60.01 | X-H torsion
[ 27181 27121 27120 27118 ] final   52.25 input   60.02 | X-H torsion
[ 10139 10129 10130 10131 ] final   15.15 input   28.23 | X-H torsion
[ 17356 17327 17328 17329 ] final -118.09 input   73.50 | X-H torsion
[ 27201  698  697  696 ] final   59.37 input    0.00 | X-H torsion
[ 27204 2526 2525 2524 ] final -114.14 input    0.00 | X-H torsion
[ 27228 7328 7327 7326 ] final  -76.34 input    0.00 | X-H torsion
[ 27233 7514 7513 7512 ] final -155.24 input    0.00 | X-H torsion
[ 27236 17124 17123 17122 ] final    9.39 input    0.00 | X-H torsion
[ 27240 18204 18203 18202 ] final  146.21 input    0.00 | X-H torsion
[ 27243 18274 18273 18272 ] final    7.92 input    0.00 | X-H torsion
[ 27246 18314 18313 18312 ] final -104.92 input   -0.00 | X-H torsion
[ 27249 18362 18361 18360 ] final  104.80 input    0.00 | X-H torsion
[ 27257 17176 17175 17174 ] final    9.60 input   -0.00 | X-H torsion
[ 27259 17220 17219 17218 ] final -108.64 input   -0.00 | X-H torsion
[ 27261 17050 17049 17048 ] final  -11.60 input    0.00 | X-H torsion
[ 27270 10132 10131 10130 ] final  152.88 input    0.00 | X-H torsion
[ 27272 11410 11409 11408 ] final   96.75 input   -0.00 | X-H torsion
[ 27279 11602 11601 11600 ] final  -85.77 input    0.00 | X-H torsion
[ 27288 18684 18683 18682 ] final   50.65 input   -0.00 | X-H torsion

> <Gold.Protein.ActiveResidues>
 LYS309  TRP311  GLU314  MET341  HIS342  TRP414  ALA417  ARG419  CYS420  VAL421 
 GLY422  ARG423  LEU460  SER462  ALA463  SER482  GLN483  LEU484  ILE485  ARG486 
 ALA502  TRP566  TYR567  LEU569  PRO570  ALA571  VAL572  SER573  ASN574  MET575 
 PHE589  SER590  GLY591  TRP592  TYR593  MET594  GLU597  ILE598  ARG601  ASP602 
 ASP605  ARG608  TRP683  PHE696  HIS697  GLU699  TYR711  ASP714  HEM750  H4B760 

> <Gold.Protein.RotatedAtoms>
  219.8804    7.5159   18.7496 H   0  0  0  0  0  0  0  0  0  0  0  0  # atno 594  bound_to 544 
  220.6309    8.8679   19.3458 H   0  0  0  0  0  0  0  0  0  0  0  0  # atno 595  bound_to 544 
  221.0926    8.2407   17.8823 H   0  0  0  0  0  0  0  0  0  0  0  0  # atno 596  bound_to 544 
  228.0310    7.6644   20.4326 H   0  0  0  0  0  0  0  0  0  0  0  0  # atno 739  bound_to 695 
  225.0827   14.2064   26.4361 H   0  0  0  0  0  0  0  0  0  0  0  0  # atno 2556 bound_to 2523
  222.6086   14.7551   24.0392 H   0  0  0  0  0  0  0  0  0  0  0  0  # atno 2627 bound_to 2595
  230.6043   26.1692   22.7272 H   0  0  0  0  0  0  0  0  0  0  0  0  # atno 7426 bound_to 7411
  232.5899   26.8055   21.1813 H   0  0  0  0  0  0  0  0  0  0  0  0  # atno 7476 bound_to 7453
  232.8166   29.4406   19.5939 H   0  0  0  0  0  0  0  0  0  0  0  0  # atno 7522 bound_to 7511
  230.9306   36.0204   13.1608 H   0  0  0  0  0  0  0  0  0  0  0  0  # atno 10099 bound_to 10092
  226.3949   34.6265   11.0857 H   0  0  0  0  0  0  0  0  0  0  0  0  # atno 10139 bound_to 10129
  221.0955   18.7886    8.6111 H   0  0  0  0  0  0  0  0  0  0  0  0  # atno 11423 bound_to 11412
  221.7352   20.8406    8.3345 H   0  0  0  0  0  0  0  0  0  0  0  0  # atno 11475 bound_to 11457
  223.1020   24.8431    6.9700 H   0  0  0  0  0  0  0  0  0  0  0  0  # atno 11539 bound_to 11523
  223.6290   23.8420    5.2562 H   0  0  0  0  0  0  0  0  0  0  0  0  # atno 11615 bound_to 11599
  227.2094   20.5496    6.1785 H   0  0  0  0  0  0  0  0  0  0  0  0  # atno 16993 bound_to 16954
  227.2929   27.1318    8.4913 H   0  0  0  0  0  0  0  0  0  0  0  0  # atno 17193 bound_to 17173
  225.0966   26.0202   10.9990 H   0  0  0  0  0  0  0  0  0  0  0  0  # atno 17249 bound_to 17217
  221.2737   25.5365   12.1792 H   0  0  0  0  0  0  0  0  0  0  0  0  # atno 17301 bound_to 17279
  218.4354   24.4371   11.9036 H   0  0  0  0  0  0  0  0  0  0  0  0  # atno 17356 bound_to 17327
  220.8400   30.5579   11.8139 H   0  0  0  0  0  0  0  0  0  0  0  0  # atno 18241 bound_to 18201
  225.1714   32.2858   11.6313 H   0  0  0  0  0  0  0  0  0  0  0  0  # atno 18293 bound_to 18271
  225.3471   32.1843    7.8637 H   0  0  0  0  0  0  0  0  0  0  0  0  # atno 18297 bound_to 18276
  227.8949   31.6084   11.0462 H   0  0  0  0  0  0  0  0  0  0  0  0  # atno 18325 bound_to 18311
  231.7929   31.7010   10.4656 H   0  0  0  0  0  0  0  0  0  0  0  0  # atno 18407 bound_to 18359
  234.0870   28.1090    8.5635 H   0  0  0  0  0  0  0  0  0  0  0  0  # atno 18493 bound_to 18451
  230.8901   21.7622    7.0233 H   0  0  0  0  0  0  0  0  0  0  0  0  # atno 18501 bound_to 18462
  235.8045   25.6669   11.0621 H   0  0  0  0  0  0  0  0  0  0  0  0  # atno 18561 bound_to 18527
  224.4690   20.5922   20.3804 H   0  0  0  0  0  0  0  0  0  0  0  0  # atno 26082 bound_to 26043
  231.3426   11.7783   21.7406 H   0  0  0  0  0  0  0  0  0  0  0  0  # atno 27179 bound_to 27119
  228.6700   13.9149   24.1395 H   0  0  0  0  0  0  0  0  0  0  0  0  # atno 27181 bound_to 27121
  226.7781    6.4561   20.3073 LP  0  0  0  0  0  0  0  0  0  0  0  0  # atno 27200 bound_to 695 
  226.9628    8.6462   16.0690 LP  0  0  0  0  0  0  0  0  0  0  0  0  # atno 27201 bound_to 698 
  226.6152    6.9934   15.6851 LP  0  0  0  0  0  0  0  0  0  0  0  0  # atno 27202 bound_to 698 
  224.9915   12.9848   25.1929 LP  0  0  0  0  0  0  0  0  0  0  0  0  # atno 27203 bound_to 2523
  223.2700   17.5714   25.4203 LP  0  0  0  0  0  0  0  0  0  0  0  0  # atno 27204 bound_to 2526
  223.6000   17.4541   23.7240 LP  0  0  0  0  0  0  0  0  0  0  0  0  # atno 27205 bound_to 2526
  222.9968   14.9521   25.7342 LP  0  0  0  0  0  0  0  0  0  0  0  0  # atno 27206 bound_to 2595
  224.3780   19.2185   21.2485 LP  0  0  0  0  0  0  0  0  0  0  0  0  # atno 27210 bound_to 26043
  224.3852   20.6661   22.0041 LP  0  0  0  0  0  0  0  0  0  0  0  0  # atno 27211 bound_to 26043
  231.1471   12.8581   20.5385 LP  0  0  0  0  0  0  0  0  0  0  0  0  # atno 27214 bound_to 27119
  230.0044   11.7249   20.8155 LP  0  0  0  0  0  0  0  0  0  0  0  0  # atno 27215 bound_to 27119
  231.6860   24.2604   21.6857 LP  0  0  0  0  0  0  0  0  0  0  0  0  # atno 27228 bound_to 7328
  230.4269   24.3820   20.5026 LP  0  0  0  0  0  0  0  0  0  0  0  0  # atno 27229 bound_to 7328
  229.0361   26.6305   22.1169 LP  0  0  0  0  0  0  0  0  0  0  0  0  # atno 27230 bound_to 7411
  232.5701   27.7207   19.6920 LP  0  0  0  0  0  0  0  0  0  0  0  0  # atno 27231 bound_to 7453
  234.5187   29.0632   19.4944 LP  0  0  0  0  0  0  0  0  0  0  0  0  # atno 27232 bound_to 7511
  233.2832   34.0680   18.8587 LP  0  0  0  0  0  0  0  0  0  0  0  0  # atno 27233 bound_to 7514
  233.1355   33.0921   17.4354 LP  0  0  0  0  0  0  0  0  0  0  0  0  # atno 27234 bound_to 7514
  228.6685   28.6362    9.4897 LP  0  0  0  0  0  0  0  0  0  0  0  0  # atno 27236 bound_to 17124
  227.0288   28.5182   10.0351 LP  0  0  0  0  0  0  0  0  0  0  0  0  # atno 27237 bound_to 17124
  226.4323   25.6170    8.3733 LP  0  0  0  0  0  0  0  0  0  0  0  0  # atno 27238 bound_to 17173
  223.8351   27.1405   10.5244 LP  0  0  0  0  0  0  0  0  0  0  0  0  # atno 27239 bound_to 17217
  224.8315   29.0040   10.4021 LP  0  0  0  0  0  0  0  0  0  0  0  0  # atno 27240 bound_to 18204
  223.8043   28.6717   11.7565 LP  0  0  0  0  0  0  0  0  0  0  0  0  # atno 27241 bound_to 18204
  224.3599   30.8132   11.1703 LP  0  0  0  0  0  0  0  0  0  0  0  0  # atno 27242 bound_to 18271
  226.5532   33.3367   11.2332 LP  0  0  0  0  0  0  0  0  0  0  0  0  # atno 27243 bound_to 18274
  228.2739   33.5001   11.3453 LP  0  0  0  0  0  0  0  0  0  0  0  0  # atno 27244 bound_to 18274
  228.7306   30.0782   10.8947 LP  0  0  0  0  0  0  0  0  0  0  0  0  # atno 27245 bound_to 18311
  230.5184   30.8428    8.4043 LP  0  0  0  0  0  0  0  0  0  0  0  0  # atno 27246 bound_to 18314
  230.8833   32.5160    8.6640 LP  0  0  0  0  0  0  0  0  0  0  0  0  # atno 27247 bound_to 18314
  231.7765   30.2446   11.4340 LP  0  0  0  0  0  0  0  0  0  0  0  0  # atno 27248 bound_to 18359
  233.0645   28.1398   12.0400 LP  0  0  0  0  0  0  0  0  0  0  0  0  # atno 27249 bound_to 18362
  234.3303   29.3157   12.1626 LP  0  0  0  0  0  0  0  0  0  0  0  0  # atno 27250 bound_to 18362
  233.9983   28.7552   10.1840 LP  0  0  0  0  0  0  0  0  0  0  0  0  # atno 27251 bound_to 18451
  235.4858   26.6260   12.4878 LP  0  0  0  0  0  0  0  0  0  0  0  0  # atno 27252 bound_to 18527
  223.7193   25.4807    8.0015 LP  0  0  0  0  0  0  0  0  0  0  0  0  # atno 27257 bound_to 17176
  222.7815   25.0279    9.3855 LP  0  0  0  0  0  0  0  0  0  0  0  0  # atno 27258 bound_to 17176
  220.9779   27.6053   12.4948 LP  0  0  0  0  0  0  0  0  0  0  0  0  # atno 27259 bound_to 17220
  221.7446   27.8685   10.9641 LP  0  0  0  0  0  0  0  0  0  0  0  0  # atno 27260 bound_to 17220
  227.6768   26.3886    4.5960 LP  0  0  0  0  0  0  0  0  0  0  0  0  # atno 27261 bound_to 17050
  227.8904   25.6062    6.1265 LP  0  0  0  0  0  0  0  0  0  0  0  0  # atno 27262 bound_to 17050
  229.8679   22.9708    7.4005 LP  0  0  0  0  0  0  0  0  0  0  0  0  # atno 27263 bound_to 18462
  230.3543   21.9196    8.5516 LP  0  0  0  0  0  0  0  0  0  0  0  0  # atno 27264 bound_to 18462
  221.9679   29.2798   11.4235 LP  0  0  0  0  0  0  0  0  0  0  0  0  # atno 27265 bound_to 18201
  226.9270   32.4995    8.0958 LP  0  0  0  0  0  0  0  0  0  0  0  0  # atno 27266 bound_to 18276
  225.8485   32.8003    9.2844 LP  0  0  0  0  0  0  0  0  0  0  0  0  # atno 27267 bound_to 18276
  230.7508   35.1804   11.7789 LP  0  0  0  0  0  0  0  0  0  0  0  0  # atno 27268 bound_to 10092
  230.2944   34.5233   13.2025 LP  0  0  0  0  0  0  0  0  0  0  0  0  # atno 27269 bound_to 10092
  223.6879   33.3759   12.0294 LP  0  0  0  0  0  0  0  0  0  0  0  0  # atno 27270 bound_to 10132
  224.8273   33.4647   10.7279 LP  0  0  0  0  0  0  0  0  0  0  0  0  # atno 27271 bound_to 10132
  222.1024   22.2581   11.3638 LP  0  0  0  0  0  0  0  0  0  0  0  0  # atno 27272 bound_to 11410
  220.6893   23.2015   11.0274 LP  0  0  0  0  0  0  0  0  0  0  0  0  # atno 27273 bound_to 11410
  221.2321   24.4321   10.8294 LP  0  0  0  0  0  0  0  0  0  0  0  0  # atno 27274 bound_to 17279
  228.4548   21.1440    7.0407 LP  0  0  0  0  0  0  0  0  0  0  0  0  # atno 27275 bound_to 16954
  228.6380   19.7708    6.1760 LP  0  0  0  0  0  0  0  0  0  0  0  0  # atno 27276 bound_to 16954
  220.7236   21.9211    9.2725 LP  0  0  0  0  0  0  0  0  0  0  0  0  # atno 27277 bound_to 11457
  221.5270   24.1136    7.1599 LP  0  0  0  0  0  0  0  0  0  0  0  0  # atno 27278 bound_to 11523
  226.8022   22.2493    4.2720 LP  0  0  0  0  0  0  0  0  0  0  0  0  # atno 27279 bound_to 11602
  225.6302   22.0204    5.5266 LP  0  0  0  0  0  0  0  0  0  0  0  0  # atno 27280 bound_to 11602
  223.2068   25.0982    4.1198 LP  0  0  0  0  0  0  0  0  0  0  0  0  # atno 27283 bound_to 11599
  221.7133   17.7231    9.6750 LP  0  0  0  0  0  0  0  0  0  0  0  0  # atno 27286 bound_to 11412
  222.4037   19.1916    9.4917 LP  0  0  0  0  0  0  0  0  0  0  0  0  # atno 27287 bound_to 11412
  233.4928   18.3847   11.1689 LP  0  0  0  0  0  0  0  0  0  0  0  0  # atno 27288 bound_to 18684
  234.8677   17.5858   10.4824 LP  0  0  0  0  0  0  0  0  0  0  0  0  # atno 27289 bound_to 18684

> <Gold.Score>
     Fitness  S(hb_ext) S(vdw_ext)  S(hb_int)    S(int)      intcor
     40.05       7.45      24.62       0.00      -1.26      -0.77

> <Gold.Goldscore.Fitness>
40.0479

> <Gold.Goldscore.Internal.Vdw>
-1.6020

> <Gold.Goldscore.Internal.Torsion>
-0.4213

> <Gold.Goldscore.External.Vdw>
24.6207

> <Gold.Goldscore.Internal.HBond>
0.0000

> <Gold.Goldscore.External.HBond>
7.4525

> <Gold.Goldscore.Internal.Correction>
-0.7653

> <Gold.Goldscore.Hbonds>
donor molecule, donor type, donor heavy atom, donor atom, acceptor molecule, acceptor atom, score
      P1  H 19343 19392       L1    17  0.94
      L1  H    10    23       P1 18462  0.91

> <Gold.Goldscore.Internal.Vdw.Weighted>
-1.6020

> <Gold.Goldscore.Internal.Torsion.Weighted>
-0.4213

> <Gold.Goldscore.External.Vdw.Weighted>
33.8535

> <Gold.Goldscore.Internal.HBond.Weighted>
0.0000

> <Gold.Goldscore.External.HBond.Weighted>
7.4525

> <Gold.Goldscore.Internal.Correction.Weighted>
-0.7653

> <Gold.Rescore>
     Score     S(PLP)   S(hbond)     S(cho)   S(metal)  DE(clash)   DE(tors)     intcor
     28.73     -26.68       1.25       0.00       0.00       0.88       0.41       ----

> <Gold.PLP.Fitness>
28.7250

> <Gold.PLP.PLP>
-26.6827

> <Gold.PLP.part.hbond>
-3.9598

> <Gold.PLP.part.metal>
0.0000

> <Gold.PLP.part.buried>
-2.6079

> <Gold.PLP.part.nonpolar>
-21.6771

> <Gold.PLP.part.repulsive>
1.8038

> <Gold.PLP.ligand.clash>
0.8759

> <Gold.PLP.ligand.torsion>
0.4096

> <Gold.PLP.Chemscore.Hbond>
1.2458

> <Gold.PLP.Chemscore.CHOScore>
0.0000

> <Gold.PLP.Chemscore.Metal>
0.0000

> <Gold.Chemscore.Hbonds>
donor molecule, donor type, donor heavy atom, donor atom, acceptor molecule, acceptor atom, score
      L1  H    10    23       P1 18462  0.38
      P1  H 19343 19392       L1    17  0.71

> <Gold.PLP.Chemscore.Internal.Correction>
   9.000000E+99

#       Name:                CT1002167954
#       Creating user name   hitesit
#       Creation time:       Sun Apr 16 22:59:51 2023


#       File generated by GOLD software.
#

@<TRIPOS>MOLECULE
CT1002167954|ligand_prepared|mol2|1|dock5
    29    30     1
SMALL
NO_CHARGES


@<TRIPOS>ATOM
      1 C1         228.2630  22.8135  12.4645 C.3            1 RES1               0.0000
      2 C2         228.4022  24.1048  13.2962 C.ar           1 RES1               0.0000
      3 C3         228.5621  21.6576  13.4146 C.2            1 RES1               0.0000
      4 C4         226.8419  22.8129  11.9121 C.2            1 RES1               0.0000
      5 C5         229.2404  22.7320  11.2688 C.3            1 RES1               0.0000
      6 C6         227.6474  24.2888  14.4509 C.ar           1 RES1               0.0000
      7 C7         229.2814  25.1181  12.9236 C.ar           1 RES1               0.0000
      8 N8         227.5106  20.8992  13.8377 N.am           1 RES1               0.0000
      9 O9         229.6980  21.4393  13.8176 O.2            1 RES1               0.0000
     10 N10        225.9836  21.8381  12.3490 N.am           1 RES1               0.0000
     11 O11        226.4528  23.6577  11.1151 O.2            1 RES1               0.0000
     12 C12        229.1582  21.4240  10.4977 C.3            1 RES1               0.0000
     13 C13        227.7694  25.4425  15.2074 C.ar           1 RES1               0.0000
     14 C14        229.4017  26.2712  13.6815 C.ar           1 RES1               0.0000
     15 C15        226.2444  20.8997  13.3100 C.2            1 RES1               0.0000
     16 C16        228.6468  26.4342  14.8235 C.ar           1 RES1               0.0000
     17 O17        225.4029  20.0902  13.6891 O.2            1 RES1               0.0000
     18 H18        229.0280  23.5607  10.5821 H              1 RES1               0.0000
     19 H19        230.2646  22.8588  11.6407 H              1 RES1               0.0000
     20 H20        226.9500  23.5204  14.7673 H              1 RES1               0.0000
     21 H21        229.8846  25.0120  12.0284 H              1 RES1               0.0000
     22 H22        227.6815  20.2739  14.6188 H              1 RES1               0.0000
     23 H23        225.0651  21.8093  11.9178 H              1 RES1               0.0000
     24 H24        229.8642  21.4193   9.6699 H              1 RES1               0.0000
     25 H25        229.3885  20.5799  11.1444 H              1 RES1               0.0000
     26 H26        228.1593  21.2776  10.0921 H              1 RES1               0.0000
     27 H27        227.1720  25.5666  16.1046 H              1 RES1               0.0000
     28 H28        230.0930  27.0494  13.3753 H              1 RES1               0.0000
     29 H29        228.7424  27.3378  15.4165 H              1 RES1               0.0000
@<TRIPOS>BOND
    1    1    2 1     
    2    1    3 1     
    3    1    4 1     
    4    1    5 1     
    5    2    6 ar    
    6    2    7 ar    
    7    3    8 1     
    8    3    9 2     
    9    4   10 1     
   10    4   11 2     
   11    5   12 1     
   12    5   18 1     
   13    5   19 1     
   14    6   13 ar    
   15    6   20 1     
   16    7   14 ar    
   17    7   21 1     
   18    8   15 1     
   19    8   22 1     
   20   10   15 1     
   21   10   23 1     
   22   12   24 1     
   23   12   25 1     
   24   12   26 1     
   25   13   16 ar    
   26   13   27 1     
   27   14   16 ar    
   28   14   28 1     
   29   15   17 2     
   30   16   29 1     
@<TRIPOS>SUBSTRUCTURE
      1 RES1           1
@<TRIPOS>SET
DONOR_HYDROGENS      STATIC     ATOMS    <user>   **** ""
2 22 23
ATOM$RED        STATIC     ATOMS    COLORGROUP SYSTEM
2 22 23
@<TRIPOS>COMMENT
> <Gold.Version>
2022.3.0

> <Gold.Id.Protein>
unknown|4v3u_clean|pdb

> <Gold.Protein.RotatedTorsions>
[  594  544  543  542 ] final  -38.94 input   59.98 | X-H torsion
[  739  695  696  697 ] final -120.13 input   98.51 | X-H torsion
[ 2556 2523 2524 2525 ] final  175.81 input  111.11 | X-H torsion
[ 2627 2595 2596 2597 ] final  138.38 input   53.40 | X-H torsion
[ 26082 26043 26042 26040 ] final   77.83 input   60.02 | X-H torsion
[ 27179 27119 27118 27114 ] final -167.97 input   60.01 | X-H torsion
[ 7426 7411 7412 7413 ] final -129.95 input   83.97 | X-H torsion
[ 7476 7453 7454 7455 ] final  136.04 input   94.79 | X-H torsion
[ 7522 7511 7512 7513 ] final  170.49 input   85.82 | X-H torsion
[ 17193 17173 17174 17175 ] final  -54.57 input   42.33 | X-H torsion
[ 17249 17217 17218 17219 ] final  158.89 input  107.71 | X-H torsion
[ 18293 18271 18272 18273 ] final   70.14 input   26.15 | X-H torsion
[ 18325 18311 18312 18313 ] final  -91.62 input   53.27 | X-H torsion
[ 18407 18359 18360 18361 ] final  -34.78 input   33.85 | X-H torsion
[ 18493 18451 18452 18453 ] final   28.94 input  113.35 | X-H torsion
[ 18561 18527 18528 18529 ] final  143.27 input   85.91 | X-H torsion
[ 18501 18462 18461 18459 ] final -109.64 input   59.98 | X-H torsion
[ 18241 18201 18202 18203 ] final  166.02 input   44.19 | X-H torsion
[ 18297 18276 18275 18272 ] final   63.43 input   59.98 | X-H torsion
[ 10099 10092 10091 10088 ] final  -43.05 input   59.98 | X-H torsion
[ 17301 17279 17280 17281 ] final  -82.51 input   44.55 | X-H torsion
[ 16993 16954 16953 16951 ] final   11.20 input   59.99 | X-H torsion
[ 11475 11457 11458 11459 ] final  143.89 input   48.15 | X-H torsion
[ 11539 11523 11524 11525 ] final -131.69 input  117.79 | X-H torsion
[ 11615 11599 11600 11601 ] final  101.65 input   58.98 | X-H torsion
[ 11423 11412 11411 11408 ] final   31.06 input   60.01 | X-H torsion
[ 27181 27121 27120 27118 ] final  -23.74 input   60.02 | X-H torsion
[ 10139 10129 10130 10131 ] final  118.59 input   28.23 | X-H torsion
[ 17356 17327 17328 17329 ] final  -90.35 input   73.50 | X-H torsion
[ 27201  698  697  696 ] final -161.29 input    0.00 | X-H torsion
[ 27204 2526 2525 2524 ] final   93.39 input    0.00 | X-H torsion
[ 27228 7328 7327 7326 ] final -119.08 input    0.00 | X-H torsion
[ 27233 7514 7513 7512 ] final  -52.21 input    0.00 | X-H torsion
[ 27236 17124 17123 17122 ] final   67.68 input    0.00 | X-H torsion
[ 27240 18204 18203 18202 ] final   42.61 input    0.00 | X-H torsion
[ 27243 18274 18273 18272 ] final   40.89 input    0.00 | X-H torsion
[ 27246 18314 18313 18312 ] final -132.16 input   -0.00 | X-H torsion
[ 27249 18362 18361 18360 ] final -104.20 input    0.00 | X-H torsion
[ 27257 17176 17175 17174 ] final -133.50 input   -0.00 | X-H torsion
[ 27259 17220 17219 17218 ] final  118.00 input   -0.00 | X-H torsion
[ 27261 17050 17049 17048 ] final   52.14 input    0.00 | X-H torsion
[ 27270 10132 10131 10130 ] final  155.92 input    0.00 | X-H torsion
[ 27272 11410 11409 11408 ] final  112.92 input   -0.00 | X-H torsion
[ 27279 11602 11601 11600 ] final   43.29 input    0.00 | X-H torsion
[ 27288 18684 18683 18682 ] final -126.93 input   -0.00 | X-H torsion

> <Gold.Protein.ActiveResidues>
 LYS309  TRP311  GLU314  MET341  HIS342  TRP414  ALA417  ARG419  CYS420  VAL421 
 GLY422  ARG423  LEU460  SER462  ALA463  SER482  GLN483  LEU484  ILE485  ARG486 
 ALA502  TRP566  TYR567  LEU569  PRO570  ALA571  VAL572  SER573  ASN574  MET575 
 PHE589  SER590  GLY591  TRP592  TYR593  MET594  GLU597  ILE598  ARG601  ASP602 
 ASP605  ARG608  TRP683  PHE696  HIS697  GLU699  TYR711  ASP714  HEM750  H4B760 

> <Gold.Protein.RotatedAtoms>
  220.1646    8.4517   19.5076 H   0  0  0  0  0  0  0  0  0  0  0  0  # atno 594  bound_to 544 
  221.2410    8.7299   18.2786 H   0  0  0  0  0  0  0  0  0  0  0  0  # atno 595  bound_to 544 
  220.1984    7.4438   18.1925 H   0  0  0  0  0  0  0  0  0  0  0  0  # atno 596  bound_to 544 
  226.5817    6.7907   20.5539 H   0  0  0  0  0  0  0  0  0  0  0  0  # atno 739  bound_to 695 
  225.7436   13.3143   25.3654 H   0  0  0  0  0  0  0  0  0  0  0  0  # atno 2556 bound_to 2523
  222.5916   14.7153   24.0488 H   0  0  0  0  0  0  0  0  0  0  0  0  # atno 2627 bound_to 2595
  229.6502   25.6931   21.9264 H   0  0  0  0  0  0  0  0  0  0  0  0  # atno 7426 bound_to 7411
  232.8902   26.4526   20.2834 H   0  0  0  0  0  0  0  0  0  0  0  0  # atno 7476 bound_to 7453
  233.9486   28.7556   18.8661 H   0  0  0  0  0  0  0  0  0  0  0  0  # atno 7522 bound_to 7511
  230.4263   34.5304   12.1550 H   0  0  0  0  0  0  0  0  0  0  0  0  # atno 10099 bound_to 10092
  226.8397   35.3734   10.0078 H   0  0  0  0  0  0  0  0  0  0  0  0  # atno 10139 bound_to 10129
  221.9084   19.4375    8.9545 H   0  0  0  0  0  0  0  0  0  0  0  0  # atno 11423 bound_to 11412
  221.9397   20.9883    9.1543 H   0  0  0  0  0  0  0  0  0  0  0  0  # atno 11475 bound_to 11457
  221.4707   24.4586    7.3420 H   0  0  0  0  0  0  0  0  0  0  0  0  # atno 11539 bound_to 11523
  224.1083   25.0140    4.7601 H   0  0  0  0  0  0  0  0  0  0  0  0  # atno 11615 bound_to 11599
  227.9302   21.2784    6.9371 H   0  0  0  0  0  0  0  0  0  0  0  0  # atno 16993 bound_to 16954
  226.9791   26.0252    9.2354 H   0  0  0  0  0  0  0  0  0  0  0  0  # atno 17193 bound_to 17173
  225.1041   26.2878   11.2891 H   0  0  0  0  0  0  0  0  0  0  0  0  # atno 17249 bound_to 17217
  221.2458   25.4793   12.2224 H   0  0  0  0  0  0  0  0  0  0  0  0  # atno 17301 bound_to 17279
  218.4395   24.7211   12.2147 H   0  0  0  0  0  0  0  0  0  0  0  0  # atno 17356 bound_to 17327
  220.9136   30.3656   12.1906 H   0  0  0  0  0  0  0  0  0  0  0  0  # atno 18241 bound_to 18201
  224.7831   32.2586   10.8906 H   0  0  0  0  0  0  0  0  0  0  0  0  # atno 18293 bound_to 18271
  226.8882   32.7329    8.7294 H   0  0  0  0  0  0  0  0  0  0  0  0  # atno 18297 bound_to 18276
  228.0437   31.5241   10.4855 H   0  0  0  0  0  0  0  0  0  0  0  0  # atno 18325 bound_to 18311
  231.5657   30.1553   11.2523 H   0  0  0  0  0  0  0  0  0  0  0  0  # atno 18407 bound_to 18359
  234.8477   28.7956    9.3917 H   0  0  0  0  0  0  0  0  0  0  0  0  # atno 18493 bound_to 18451
  230.9084   21.7208    7.0714 H   0  0  0  0  0  0  0  0  0  0  0  0  # atno 18501 bound_to 18462
  235.3858   26.4368   12.5791 H   0  0  0  0  0  0  0  0  0  0  0  0  # atno 18561 bound_to 18527
  224.4436   21.0942   21.1539 H   0  0  0  0  0  0  0  0  0  0  0  0  # atno 26082 bound_to 26043
  230.2066   11.4521   21.2333 H   0  0  0  0  0  0  0  0  0  0  0  0  # atno 27179 bound_to 27119
  229.5730   14.6102   23.9644 H   0  0  0  0  0  0  0  0  0  0  0  0  # atno 27181 bound_to 27121
  228.2050    7.3163   20.1878 LP  0  0  0  0  0  0  0  0  0  0  0  0  # atno 27200 bound_to 695 
  227.1726    7.1361   15.5090 LP  0  0  0  0  0  0  0  0  0  0  0  0  # atno 27201 bound_to 698 
  226.4055    8.5035   16.2451 LP  0  0  0  0  0  0  0  0  0  0  0  0  # atno 27202 bound_to 698 
  224.3409   13.8630   26.2469 LP  0  0  0  0  0  0  0  0  0  0  0  0  # atno 27203 bound_to 2523
  223.1883   17.4539   23.7441 LP  0  0  0  0  0  0  0  0  0  0  0  0  # atno 27204 bound_to 2526
  223.6816   17.5717   25.4002 LP  0  0  0  0  0  0  0  0  0  0  0  0  # atno 27205 bound_to 2526
  223.0132   14.9907   25.7249 LP  0  0  0  0  0  0  0  0  0  0  0  0  # atno 27206 bound_to 2595
  224.4372   19.6400   20.4230 LP  0  0  0  0  0  0  0  0  0  0  0  0  # atno 27210 bound_to 26043
  224.3517   19.7392   22.0507 LP  0  0  0  0  0  0  0  0  0  0  0  0  # atno 27211 bound_to 26043
  231.6247   12.1902   21.5392 LP  0  0  0  0  0  0  0  0  0  0  0  0  # atno 27214 bound_to 27119
  230.6700   12.7211   20.3254 LP  0  0  0  0  0  0  0  0  0  0  0  0  # atno 27215 bound_to 27119
  231.7734   24.7579   21.3073 LP  0  0  0  0  0  0  0  0  0  0  0  0  # atno 27228 bound_to 7328
  230.3396   23.8845   20.8810 LP  0  0  0  0  0  0  0  0  0  0  0  0  # atno 27229 bound_to 7328
  229.9763   27.0997   22.9060 LP  0  0  0  0  0  0  0  0  0  0  0  0  # atno 27230 bound_to 7411
  232.2772   28.0648   20.5675 LP  0  0  0  0  0  0  0  0  0  0  0  0  # atno 27231 bound_to 7453
  233.4090   29.7347   20.2078 LP  0  0  0  0  0  0  0  0  0  0  0  0  # atno 27232 bound_to 7511
  234.0265   33.5186   17.8668 LP  0  0  0  0  0  0  0  0  0  0  0  0  # atno 27233 bound_to 7514
  232.3922   33.6415   18.4273 LP  0  0  0  0  0  0  0  0  0  0  0  0  # atno 27234 bound_to 7514
  228.0610   29.0243    9.0517 LP  0  0  0  0  0  0  0  0  0  0  0  0  # atno 27236 bound_to 17124
  227.6364   28.1302   10.4731 LP  0  0  0  0  0  0  0  0  0  0  0  0  # atno 27237 bound_to 17124
  226.7400   26.7021    7.6436 LP  0  0  0  0  0  0  0  0  0  0  0  0  # atno 27238 bound_to 17173
  223.8280   26.8835   10.2459 LP  0  0  0  0  0  0  0  0  0  0  0  0  # atno 27239 bound_to 17217
  223.5226   28.8382   10.7365 LP  0  0  0  0  0  0  0  0  0  0  0  0  # atno 27240 bound_to 18204
  225.1132   28.8375   11.4220 LP  0  0  0  0  0  0  0  0  0  0  0  0  # atno 27241 bound_to 18204
  224.7444   30.8402   11.9037 LP  0  0  0  0  0  0  0  0  0  0  0  0  # atno 27242 bound_to 18271
  226.6703   33.2593   11.7043 LP  0  0  0  0  0  0  0  0  0  0  0  0  # atno 27243 bound_to 18274
  228.1568   33.5775   10.8742 LP  0  0  0  0  0  0  0  0  0  0  0  0  # atno 27244 bound_to 18274
  228.5865   30.1599   11.4378 LP  0  0  0  0  0  0  0  0  0  0  0  0  # atno 27245 bound_to 18311
  230.9196   30.8655    8.3347 LP  0  0  0  0  0  0  0  0  0  0  0  0  # atno 27246 bound_to 18314
  230.4821   32.4932    8.7336 LP  0  0  0  0  0  0  0  0  0  0  0  0  # atno 27247 bound_to 18314
  231.9973   31.7469   10.6694 LP  0  0  0  0  0  0  0  0  0  0  0  0  # atno 27248 bound_to 18359
  234.5375   28.9369   12.1226 LP  0  0  0  0  0  0  0  0  0  0  0  0  # atno 27249 bound_to 18362
  232.8573   28.5186   12.0800 LP  0  0  0  0  0  0  0  0  0  0  0  0  # atno 27250 bound_to 18362
  233.2532   28.0826    9.3728 LP  0  0  0  0  0  0  0  0  0  0  0  0  # atno 27251 bound_to 18451
  235.8951   25.8736   11.0051 LP  0  0  0  0  0  0  0  0  0  0  0  0  # atno 27252 bound_to 18527
  222.5499   25.4684    9.1555 LP  0  0  0  0  0  0  0  0  0  0  0  0  # atno 27257 bound_to 17176
  223.9509   25.0402    8.2315 LP  0  0  0  0  0  0  0  0  0  0  0  0  # atno 27258 bound_to 17176
  221.0755   27.7282   10.9119 LP  0  0  0  0  0  0  0  0  0  0  0  0  # atno 27259 bound_to 17220
  221.6470   27.7456   12.5469 LP  0  0  0  0  0  0  0  0  0  0  0  0  # atno 27260 bound_to 17220
  228.3128   25.7441    4.7242 LP  0  0  0  0  0  0  0  0  0  0  0  0  # atno 27261 bound_to 17050
  227.2545   26.2507    5.9983 LP  0  0  0  0  0  0  0  0  0  0  0  0  # atno 27262 bound_to 17050
  229.8911   22.9623    7.3386 LP  0  0  0  0  0  0  0  0  0  0  0  0  # atno 27263 bound_to 18462
  230.3126   21.9698    8.5650 LP  0  0  0  0  0  0  0  0  0  0  0  0  # atno 27264 bound_to 18462
  221.8963   29.4669   11.0571 LP  0  0  0  0  0  0  0  0  0  0  0  0  # atno 27265 bound_to 18201
  225.2836   32.5992    8.9671 LP  0  0  0  0  0  0  0  0  0  0  0  0  # atno 27266 bound_to 18276
  225.9409   32.1484    7.5419 LP  0  0  0  0  0  0  0  0  0  0  0  0  # atno 27267 bound_to 18276
  230.5162   35.1786   13.6448 LP  0  0  0  0  0  0  0  0  0  0  0  0  # atno 27268 bound_to 10092
  231.0370   36.0260   12.3497 LP  0  0  0  0  0  0  0  0  0  0  0  0  # atno 27269 bound_to 10092
  223.6557   33.3642   11.9988 LP  0  0  0  0  0  0  0  0  0  0  0  0  # atno 27270 bound_to 10132
  224.8594   33.4764   10.7584 LP  0  0  0  0  0  0  0  0  0  0  0  0  # atno 27271 bound_to 10132
  222.2022   22.4142   11.2056 LP  0  0  0  0  0  0  0  0  0  0  0  0  # atno 27272 bound_to 11410
  220.5894   23.0454   11.1857 LP  0  0  0  0  0  0  0  0  0  0  0  0  # atno 27273 bound_to 11410
  221.2595   24.4884   10.7867 LP  0  0  0  0  0  0  0  0  0  0  0  0  # atno 27274 bound_to 17279
  228.9507   20.0870    6.5051 LP  0  0  0  0  0  0  0  0  0  0  0  0  # atno 27275 bound_to 16954
  227.4159   20.0936    5.9474 LP  0  0  0  0  0  0  0  0  0  0  0  0  # atno 27276 bound_to 16954
  220.5268   21.7790    8.4841 LP  0  0  0  0  0  0  0  0  0  0  0  0  # atno 27277 bound_to 11457
  223.1285   24.4911    6.7947 LP  0  0  0  0  0  0  0  0  0  0  0  0  # atno 27278 bound_to 11523
  225.7963   22.7291    5.3689 LP  0  0  0  0  0  0  0  0  0  0  0  0  # atno 27279 bound_to 11602
  226.6362   21.5407    4.4296 LP  0  0  0  0  0  0  0  0  0  0  0  0  # atno 27280 bound_to 11602
  222.7357   23.9461    4.6075 LP  0  0  0  0  0  0  0  0  0  0  0  0  # atno 27283 bound_to 11599
  221.0114   18.0803    8.9036 LP  0  0  0  0  0  0  0  0  0  0  0  0  # atno 27286 bound_to 11412
  222.2875   18.1813    9.9176 LP  0  0  0  0  0  0  0  0  0  0  0  0  # atno 27287 bound_to 11412
  234.8790   17.5778   10.5163 LP  0  0  0  0  0  0  0  0  0  0  0  0  # atno 27288 bound_to 18684
  233.4814   18.3927   11.1350 LP  0  0  0  0  0  0  0  0  0  0  0  0  # atno 27289 bound_to 18684

> <Gold.Score>
     Fitness  S(hb_ext) S(vdw_ext)  S(hb_int)    S(int)      intcor
     39.99       0.65      28.66       0.00      -0.07      -0.77

> <Gold.Goldscore.Fitness>
39.9919

> <Gold.Goldscore.Internal.Vdw>
-0.4512

> <Gold.Goldscore.Internal.Torsion>
-0.3865

> <Gold.Goldscore.External.Vdw>
28.6614

> <Gold.Goldscore.Internal.HBond>
0.0000

> <Gold.Goldscore.External.HBond>
0.6550

> <Gold.Goldscore.Internal.Correction>
-0.7653

> <Gold.Goldscore.Hbonds>
donor molecule, donor type, donor heavy atom, donor atom, acceptor molecule, acceptor atom, score
      L1  H     8    22       P1 26881  0.11

> <Gold.Goldscore.Internal.Vdw.Weighted>
-0.4512

> <Gold.Goldscore.Internal.Torsion.Weighted>
-0.3865

> <Gold.Goldscore.External.Vdw.Weighted>
39.4094

> <Gold.Goldscore.Internal.HBond.Weighted>
0.0000

> <Gold.Goldscore.External.HBond.Weighted>
0.6550

> <Gold.Goldscore.Internal.Correction.Weighted>
-0.7653

> <Gold.Rescore>
     Score     S(PLP)   S(hbond)     S(cho)   S(metal)  DE(clash)   DE(tors)     intcor
     29.60     -26.85       0.99       0.00       0.00       0.00       0.11       ----

> <Gold.PLP.Fitness>
29.6011

> <Gold.PLP.PLP>
-26.8458

> <Gold.PLP.part.hbond>
-1.1965

> <Gold.PLP.part.metal>
0.0000

> <Gold.PLP.part.buried>
8.7889

> <Gold.PLP.part.nonpolar>
-38.5487

> <Gold.PLP.part.repulsive>
4.2554

> <Gold.PLP.ligand.clash>
0.0000

> <Gold.PLP.ligand.torsion>
0.1092

> <Gold.PLP.Chemscore.Hbond>
0.9913

> <Gold.PLP.Chemscore.CHOScore>
0.0000

> <Gold.PLP.Chemscore.Metal>
0.0000

> <Gold.Chemscore.Hbonds>
donor molecule, donor type, donor heavy atom, donor atom, acceptor molecule, acceptor atom, score
      L1  H     8    22       P1 26881  0.62

> <Gold.PLP.Chemscore.Internal.Correction>
   9.000000E+99

#       Name:                CT1002167954
#       Creating user name   hitesit
#       Creation time:       Sun Apr 16 22:59:52 2023


#       File generated by GOLD software.
#

@<TRIPOS>MOLECULE
CT1002167954|ligand_prepared|mol2|1|dock6
    29    30     1
SMALL
NO_CHARGES


@<TRIPOS>ATOM
      1 C1         228.0832  22.4193  12.6449 C.3            1 RES1               0.0000
      2 C2         228.6243  23.7924  13.0926 C.ar           1 RES1               0.0000
      3 C3         227.6085  22.5945  11.2054 C.2            1 RES1               0.0000
      4 C4         229.2358  21.4340  12.8043 C.2            1 RES1               0.0000
      5 C5         226.8967  21.9080  13.4947 C.3            1 RES1               0.0000
      6 C6         228.0921  24.4349  14.2065 C.ar           1 RES1               0.0000
      7 C7         229.6552  24.4268  12.4046 C.ar           1 RES1               0.0000
      8 N8         228.3749  22.0513  10.2168 N.am           1 RES1               0.0000
      9 O9         226.5980  23.2334  10.9391 O.2            1 RES1               0.0000
     10 N10        229.7519  20.8609  11.6716 N.am           1 RES1               0.0000
     11 O11        229.7127  21.1614  13.8991 O.2            1 RES1               0.0000
     12 C12        226.3400  20.5717  13.0292 C.3            1 RES1               0.0000
     13 C13        228.5750  25.6655  14.6195 C.ar           1 RES1               0.0000
     14 C14        230.1365  25.6577  12.8192 C.ar           1 RES1               0.0000
     15 C15        229.3940  21.1482  10.3826 C.2            1 RES1               0.0000
     16 C16        229.5977  26.2775  13.9265 C.ar           1 RES1               0.0000
     17 O17        229.9424  20.6311   9.4135 O.2            1 RES1               0.0000
     18 H18        227.2250  21.8100  14.5368 H              1 RES1               0.0000
     19 H19        226.0935  22.6546  13.4650 H              1 RES1               0.0000
     20 H20        227.2853  23.9697  14.7629 H              1 RES1               0.0000
     21 H21        230.0936  23.9584  11.5300 H              1 RES1               0.0000
     22 H22        228.1716  22.3437   9.2662 H              1 RES1               0.0000
     23 H23        230.4693  20.1545  11.8014 H              1 RES1               0.0000
     24 H24        225.5099  20.2591  13.6592 H              1 RES1               0.0000
     25 H25        225.9809  20.6393  12.0044 H              1 RES1               0.0000
     26 H26        227.1057  19.7997  13.0698 H              1 RES1               0.0000
     27 H27        228.1466  26.1498  15.4908 H              1 RES1               0.0000
     28 H28        230.9411  26.1360  12.2704 H              1 RES1               0.0000
     29 H29        229.9761  27.2414  14.2505 H              1 RES1               0.0000
@<TRIPOS>BOND
    1    1    2 1     
    2    1    3 1     
    3    1    4 1     
    4    1    5 1     
    5    2    6 ar    
    6    2    7 ar    
    7    3    8 1     
    8    3    9 2     
    9    4   10 1     
   10    4   11 2     
   11    5   12 1     
   12    5   18 1     
   13    5   19 1     
   14    6   13 ar    
   15    6   20 1     
   16    7   14 ar    
   17    7   21 1     
   18    8   15 1     
   19    8   22 1     
   20   10   15 1     
   21   10   23 1     
   22   12   24 1     
   23   12   25 1     
   24   12   26 1     
   25   13   16 ar    
   26   13   27 1     
   27   14   16 ar    
   28   14   28 1     
   29   15   17 2     
   30   16   29 1     
@<TRIPOS>SUBSTRUCTURE
      1 RES1           1
@<TRIPOS>SET
DONOR_HYDROGENS      STATIC     ATOMS    <user>   **** ""
2 22 23
ATOM$RED        STATIC     ATOMS    COLORGROUP SYSTEM
2 22 23
@<TRIPOS>COMMENT
> <Gold.Version>
2022.3.0

> <Gold.Id.Protein>
unknown|4v3u_clean|pdb

> <Gold.Protein.RotatedTorsions>
[  594  544  543  542 ] final  -32.23 input   59.98 | X-H torsion
[  739  695  696  697 ] final   18.69 input   98.51 | X-H torsion
[ 2556 2523 2524 2525 ] final -159.21 input  111.11 | X-H torsion
[ 2627 2595 2596 2597 ] final -142.75 input   53.40 | X-H torsion
[ 26082 26043 26042 26040 ] final  110.84 input   60.02 | X-H torsion
[ 27179 27119 27118 27114 ] final   61.34 input   60.01 | X-H torsion
[ 7426 7411 7412 7413 ] final  -76.47 input   83.97 | X-H torsion
[ 7476 7453 7454 7455 ] final  -88.15 input   94.79 | X-H torsion
[ 7522 7511 7512 7513 ] final   54.83 input   85.82 | X-H torsion
[ 17193 17173 17174 17175 ] final  -29.47 input   42.33 | X-H torsion
[ 17249 17217 17218 17219 ] final -148.44 input  107.71 | X-H torsion
[ 18293 18271 18272 18273 ] final  -96.08 input   26.15 | X-H torsion
[ 18325 18311 18312 18313 ] final   42.80 input   53.27 | X-H torsion
[ 18407 18359 18360 18361 ] final   58.94 input   33.85 | X-H torsion
[ 18493 18451 18452 18453 ] final   44.49 input  113.35 | X-H torsion
[ 18561 18527 18528 18529 ] final  136.24 input   85.91 | X-H torsion
[ 18501 18462 18461 18459 ] final  -22.74 input   59.98 | X-H torsion
[ 18241 18201 18202 18203 ] final   69.27 input   44.19 | X-H torsion
[ 18297 18276 18275 18272 ] final    6.12 input   59.98 | X-H torsion
[ 10099 10092 10091 10088 ] final -144.26 input   59.98 | X-H torsion
[ 17301 17279 17280 17281 ] final   -9.23 input   44.55 | X-H torsion
[ 16993 16954 16953 16951 ] final  -63.36 input   59.99 | X-H torsion
[ 11475 11457 11458 11459 ] final -117.98 input   48.15 | X-H torsion
[ 11539 11523 11524 11525 ] final -114.50 input  117.79 | X-H torsion
[ 11615 11599 11600 11601 ] final  133.22 input   58.98 | X-H torsion
[ 11423 11412 11411 11408 ] final   24.48 input   60.01 | X-H torsion
[ 27181 27121 27120 27118 ] final -159.54 input   60.02 | X-H torsion
[ 10139 10129 10130 10131 ] final  -25.58 input   28.23 | X-H torsion
[ 17356 17327 17328 17329 ] final   51.98 input   73.50 | X-H torsion
[ 27201  698  697  696 ] final -165.14 input    0.00 | X-H torsion
[ 27204 2526 2525 2524 ] final  -85.88 input    0.00 | X-H torsion
[ 27228 7328 7327 7326 ] final -155.30 input    0.00 | X-H torsion
[ 27233 7514 7513 7512 ] final   30.32 input    0.00 | X-H torsion
[ 27236 17124 17123 17122 ] final -179.53 input    0.00 | X-H torsion
[ 27240 18204 18203 18202 ] final  113.19 input    0.00 | X-H torsion
[ 27243 18274 18273 18272 ] final   45.64 input    0.00 | X-H torsion
[ 27246 18314 18313 18312 ] final   17.46 input   -0.00 | X-H torsion
[ 27249 18362 18361 18360 ] final    4.83 input    0.00 | X-H torsion
[ 27257 17176 17175 17174 ] final -100.77 input   -0.00 | X-H torsion
[ 27259 17220 17219 17218 ] final -157.15 input   -0.00 | X-H torsion
[ 27261 17050 17049 17048 ] final  166.16 input    0.00 | X-H torsion
[ 27270 10132 10131 10130 ] final   71.61 input    0.00 | X-H torsion
[ 27272 11410 11409 11408 ] final -123.61 input   -0.00 | X-H torsion
[ 27279 11602 11601 11600 ] final   71.83 input    0.00 | X-H torsion
[ 27288 18684 18683 18682 ] final  107.06 input   -0.00 | X-H torsion

> <Gold.Protein.ActiveResidues>
 LYS309  TRP311  GLU314  MET341  HIS342  TRP414  ALA417  ARG419  CYS420  VAL421 
 GLY422  ARG423  LEU460  SER462  ALA463  SER482  GLN483  LEU484  ILE485  ARG486 
 ALA502  TRP566  TYR567  LEU569  PRO570  ALA571  VAL572  SER573  ASN574  MET575 
 PHE589  SER590  GLY591  TRP592  TYR593  MET594  GLU597  ILE598  ARG601  ASP602 
 ASP605  ARG608  TRP683  PHE696  HIS697  GLU699  TYR711  ASP714  HEM750  H4B760 

> <Gold.Protein.RotatedAtoms>
  220.2375    8.5368   19.5076 H   0  0  0  0  0  0  0  0  0  0  0  0  # atno 594  bound_to 544 
  221.2385    8.6583   18.1924 H   0  0  0  0  0  0  0  0  0  0  0  0  # atno 595  bound_to 544 
  220.1281    7.4303   18.2787 H   0  0  0  0  0  0  0  0  0  0  0  0  # atno 596  bound_to 544 
  228.1143    6.7562   19.9537 H   0  0  0  0  0  0  0  0  0  0  0  0  # atno 739  bound_to 695 
  225.8907   13.5755   25.5996 H   0  0  0  0  0  0  0  0  0  0  0  0  # atno 2556 bound_to 2523
  223.0870   15.6109   24.5261 H   0  0  0  0  0  0  0  0  0  0  0  0  # atno 2627 bound_to 2595
  230.3395   25.7048   22.3138 H   0  0  0  0  0  0  0  0  0  0  0  0  # atno 7426 bound_to 7411
  232.2892   27.7228   21.1293 H   0  0  0  0  0  0  0  0  0  0  0  0  # atno 7476 bound_to 7453
  232.8118   29.4235   19.5665 H   0  0  0  0  0  0  0  0  0  0  0  0  # atno 7522 bound_to 7511
  230.4101   34.9059   13.5520 H   0  0  0  0  0  0  0  0  0  0  0  0  # atno 10099 bound_to 10092
  226.4299   34.9790   11.5870 H   0  0  0  0  0  0  0  0  0  0  0  0  # atno 10139 bound_to 10129
  221.8234   19.4251    8.8898 H   0  0  0  0  0  0  0  0  0  0  0  0  # atno 11423 bound_to 11412
  220.9823   21.8596    9.5354 H   0  0  0  0  0  0  0  0  0  0  0  0  # atno 11475 bound_to 11457
  221.4793   24.2211    7.2284 H   0  0  0  0  0  0  0  0  0  0  0  0  # atno 11539 bound_to 11523
  223.8201   25.2176    4.4363 H   0  0  0  0  0  0  0  0  0  0  0  0  # atno 11615 bound_to 11599
  228.9020   20.6954    6.8975 H   0  0  0  0  0  0  0  0  0  0  0  0  # atno 16993 bound_to 16954
  226.7683   25.7566    9.0615 H   0  0  0  0  0  0  0  0  0  0  0  0  # atno 17193 bound_to 17173
  224.9489   25.8567   10.6417 H   0  0  0  0  0  0  0  0  0  0  0  0  # atno 17249 bound_to 17217
  220.9494   24.4764   12.1517 H   0  0  0  0  0  0  0  0  0  0  0  0  # atno 17301 bound_to 17279
  219.6491   23.9732   13.0763 H   0  0  0  0  0  0  0  0  0  0  0  0  # atno 17356 bound_to 17327
  221.7555   29.3422   12.2035 H   0  0  0  0  0  0  0  0  0  0  0  0  # atno 18241 bound_to 18201
  224.8459   30.9582   12.0442 H   0  0  0  0  0  0  0  0  0  0  0  0  # atno 18293 bound_to 18271
  226.1806   32.8399    9.2725 H   0  0  0  0  0  0  0  0  0  0  0  0  # atno 18297 bound_to 18276
  228.7675   30.0851   10.7880 H   0  0  0  0  0  0  0  0  0  0  0  0  # atno 18325 bound_to 18311
  232.4329   31.0681   11.5527 H   0  0  0  0  0  0  0  0  0  0  0  0  # atno 18407 bound_to 18359
  234.8551   28.7056    9.1705 H   0  0  0  0  0  0  0  0  0  0  0  0  # atno 18493 bound_to 18451
  230.6433   21.6223    8.3274 H   0  0  0  0  0  0  0  0  0  0  0  0  # atno 18501 bound_to 18462
  235.3454   26.3373   12.5942 H   0  0  0  0  0  0  0  0  0  0  0  0  # atno 18561 bound_to 18527
  224.4114   20.9743   21.6714 H   0  0  0  0  0  0  0  0  0  0  0  0  # atno 26082 bound_to 26043
  231.6545   12.3256   21.4322 H   0  0  0  0  0  0  0  0  0  0  0  0  # atno 27179 bound_to 27119
  229.9705   13.6568   25.3590 H   0  0  0  0  0  0  0  0  0  0  0  0  # atno 27181 bound_to 27121
  226.6960    7.3503   20.7788 LP  0  0  0  0  0  0  0  0  0  0  0  0  # atno 27200 bound_to 695 
  227.2196    7.1693   15.5008 LP  0  0  0  0  0  0  0  0  0  0  0  0  # atno 27201 bound_to 698 
  226.3585    8.4702   16.2533 LP  0  0  0  0  0  0  0  0  0  0  0  0  # atno 27202 bound_to 698 
  224.1961   13.6059   26.0164 LP  0  0  0  0  0  0  0  0  0  0  0  0  # atno 27203 bound_to 2523
  223.6921   17.5715   25.3970 LP  0  0  0  0  0  0  0  0  0  0  0  0  # atno 27204 bound_to 2526
  223.1778   17.4541   23.7472 LP  0  0  0  0  0  0  0  0  0  0  0  0  # atno 27205 bound_to 2526
  222.5334   14.1230   25.2625 LP  0  0  0  0  0  0  0  0  0  0  0  0  # atno 27206 bound_to 2595
  224.4628   20.1521   20.2678 LP  0  0  0  0  0  0  0  0  0  0  0  0  # atno 27210 bound_to 26043
  224.3585   19.3477   21.6851 LP  0  0  0  0  0  0  0  0  0  0  0  0  # atno 27211 bound_to 26043
  230.5207   12.6310   20.3049 LP  0  0  0  0  0  0  0  0  0  0  0  0  # atno 27214 bound_to 27119
  230.3168   11.4011   21.3595 LP  0  0  0  0  0  0  0  0  0  0  0  0  # atno 27215 bound_to 27119
  231.5451   25.0057   20.8873 LP  0  0  0  0  0  0  0  0  0  0  0  0  # atno 27228 bound_to 7328
  230.5679   23.6368   21.3010 LP  0  0  0  0  0  0  0  0  0  0  0  0  # atno 27229 bound_to 7328
  229.2971   27.0882   22.5242 LP  0  0  0  0  0  0  0  0  0  0  0  0  # atno 27230 bound_to 7411
  232.8632   26.8263   19.7427 LP  0  0  0  0  0  0  0  0  0  0  0  0  # atno 27231 bound_to 7453
  234.5234   29.0800   19.5212 LP  0  0  0  0  0  0  0  0  0  0  0  0  # atno 27232 bound_to 7511
  233.0530   33.0896   17.4506 LP  0  0  0  0  0  0  0  0  0  0  0  0  # atno 27233 bound_to 7514
  233.3657   34.0706   18.8435 LP  0  0  0  0  0  0  0  0  0  0  0  0  # atno 27234 bound_to 7514
  226.9989   28.5948    9.9284 LP  0  0  0  0  0  0  0  0  0  0  0  0  # atno 27236 bound_to 17124
  228.6985   28.5597    9.5964 LP  0  0  0  0  0  0  0  0  0  0  0  0  # atno 27237 bound_to 17124
  226.9467   26.9655    7.8141 LP  0  0  0  0  0  0  0  0  0  0  0  0  # atno 27238 bound_to 17173
  223.9770   27.2975   10.8676 LP  0  0  0  0  0  0  0  0  0  0  0  0  # atno 27239 bound_to 17217
  224.3704   28.9992   10.2300 LP  0  0  0  0  0  0  0  0  0  0  0  0  # atno 27240 bound_to 18204
  224.2654   28.6765   11.9285 LP  0  0  0  0  0  0  0  0  0  0  0  0  # atno 27241 bound_to 18204
  224.6821   32.1277   10.7615 LP  0  0  0  0  0  0  0  0  0  0  0  0  # atno 27242 bound_to 18271
  226.7088   33.2520   11.7643 LP  0  0  0  0  0  0  0  0  0  0  0  0  # atno 27243 bound_to 18274
  228.1182   33.5848   10.8142 LP  0  0  0  0  0  0  0  0  0  0  0  0  # atno 27244 bound_to 18274
  227.8854   31.5539   11.1448 LP  0  0  0  0  0  0  0  0  0  0  0  0  # atno 27245 bound_to 18311
  230.0957   32.2567    8.7587 LP  0  0  0  0  0  0  0  0  0  0  0  0  # atno 27246 bound_to 18314
  231.3061   31.1021    8.3096 LP  0  0  0  0  0  0  0  0  0  0  0  0  # atno 27247 bound_to 18314
  231.1545   30.8597   10.3774 LP  0  0  0  0  0  0  0  0  0  0  0  0  # atno 27248 bound_to 18359
  233.2247   29.4494   12.1775 LP  0  0  0  0  0  0  0  0  0  0  0  0  # atno 27249 bound_to 18362
  234.1701   28.0061   12.0250 LP  0  0  0  0  0  0  0  0  0  0  0  0  # atno 27250 bound_to 18362
  233.2459   28.1708    9.5894 LP  0  0  0  0  0  0  0  0  0  0  0  0  # atno 27251 bound_to 18451
  235.9346   25.9708   10.9903 LP  0  0  0  0  0  0  0  0  0  0  0  0  # atno 27252 bound_to 18527
  222.5790   25.7924    8.7917 LP  0  0  0  0  0  0  0  0  0  0  0  0  # atno 27257 bound_to 17176
  223.9219   24.7163    8.5953 LP  0  0  0  0  0  0  0  0  0  0  0  0  # atno 27258 bound_to 17176
  220.5417   27.5477   11.9357 LP  0  0  0  0  0  0  0  0  0  0  0  0  # atno 27259 bound_to 17220
  222.1808   27.9261   11.5232 LP  0  0  0  0  0  0  0  0  0  0  0  0  # atno 27260 bound_to 17220
  227.9155   25.5879    6.1128 LP  0  0  0  0  0  0  0  0  0  0  0  0  # atno 27261 bound_to 17050
  227.6517   26.4069    4.6096 LP  0  0  0  0  0  0  0  0  0  0  0  0  # atno 27262 bound_to 17050
  230.6903   22.1102    6.7758 LP  0  0  0  0  0  0  0  0  0  0  0  0  # atno 27263 bound_to 18462
  229.7805   22.9212    7.8626 LP  0  0  0  0  0  0  0  0  0  0  0  0  # atno 27264 bound_to 18462
  221.0773   30.4625   11.0445 LP  0  0  0  0  0  0  0  0  0  0  0  0  # atno 27265 bound_to 18201
  225.1683   32.2652    8.1348 LP  0  0  0  0  0  0  0  0  0  0  0  0  # atno 27266 bound_to 18276
  226.7684   32.3747    7.8277 LP  0  0  0  0  0  0  0  0  0  0  0  0  # atno 27267 bound_to 18276
  231.0336   36.1059   12.6470 LP  0  0  0  0  0  0  0  0  0  0  0  0  # atno 27268 bound_to 10092
  230.5359   34.7204   11.9403 LP  0  0  0  0  0  0  0  0  0  0  0  0  # atno 27269 bound_to 10092
  224.7864   33.6323   12.0308 LP  0  0  0  0  0  0  0  0  0  0  0  0  # atno 27270 bound_to 10132
  223.7287   33.2083   10.7264 LP  0  0  0  0  0  0  0  0  0  0  0  0  # atno 27271 bound_to 10132
  221.1546   23.4086   10.7150 LP  0  0  0  0  0  0  0  0  0  0  0  0  # atno 27272 bound_to 11410
  221.6370   22.0509   11.6762 LP  0  0  0  0  0  0  0  0  0  0  0  0  # atno 27273 bound_to 11410
  221.5519   25.4778   10.8565 LP  0  0  0  0  0  0  0  0  0  0  0  0  # atno 27274 bound_to 17279
  228.0399   19.7193    5.9220 LP  0  0  0  0  0  0  0  0  0  0  0  0  # atno 27275 bound_to 16954
  227.3477   21.0486    6.5704 LP  0  0  0  0  0  0  0  0  0  0  0  0  # atno 27276 bound_to 16954
  221.4476   20.9410    8.1176 LP  0  0  0  0  0  0  0  0  0  0  0  0  # atno 27277 bound_to 11457
  223.1200   24.7243    6.9062 LP  0  0  0  0  0  0  0  0  0  0  0  0  # atno 27278 bound_to 11523
  225.6496   22.3561    5.5157 LP  0  0  0  0  0  0  0  0  0  0  0  0  # atno 27279 bound_to 11602
  226.7828   21.9137    4.2828 LP  0  0  0  0  0  0  0  0  0  0  0  0  # atno 27280 bound_to 11602
  223.0190   23.7459    4.9258 LP  0  0  0  0  0  0  0  0  0  0  0  0  # atno 27283 bound_to 11599
  221.0411   18.0001    8.9699 LP  0  0  0  0  0  0  0  0  0  0  0  0  # atno 27286 bound_to 11412
  222.3434   18.2741    9.9163 LP  0  0  0  0  0  0  0  0  0  0  0  0  # atno 27287 bound_to 11412
  233.5649   18.3706   10.3536 LP  0  0  0  0  0  0  0  0  0  0  0  0  # atno 27288 bound_to 18684
  234.7956   17.5998   11.2977 LP  0  0  0  0  0  0  0  0  0  0  0  0  # atno 27289 bound_to 18684

> <Gold.Score>
     Fitness  S(hb_ext) S(vdw_ext)  S(hb_int)    S(int)      intcor
     39.35       1.81      27.90       0.00      -0.82      -0.77

> <Gold.Goldscore.Fitness>
39.3531

> <Gold.Goldscore.Internal.Vdw>
-1.2102

> <Gold.Goldscore.Internal.Torsion>
-0.3719

> <Gold.Goldscore.External.Vdw>
27.8951

> <Gold.Goldscore.Internal.HBond>
0.0000

> <Gold.Goldscore.External.HBond>
1.8142

> <Gold.Goldscore.Internal.Correction>
-0.7653

> <Gold.Goldscore.Hbonds>
donor molecule, donor type, donor heavy atom, donor atom, acceptor molecule, acceptor atom, score
      P1  H 18462 18501       L1    17  0.23
      P1  H 16954 16993       L1    17  0.25
      L1  H     8    22       P1 11465  0.14

> <Gold.Goldscore.Internal.Vdw.Weighted>
-1.2102

> <Gold.Goldscore.Internal.Torsion.Weighted>
-0.3719

> <Gold.Goldscore.External.Vdw.Weighted>
38.3557

> <Gold.Goldscore.Internal.HBond.Weighted>
0.0000

> <Gold.Goldscore.External.HBond.Weighted>
1.8142

> <Gold.Goldscore.Internal.Correction.Weighted>
-0.7653

> <Gold.Rescore>
     Score     S(PLP)   S(hbond)     S(cho)   S(metal)  DE(clash)   DE(tors)     intcor
     21.70     -18.17       1.48       0.00       0.00       0.00       0.46       ----

> <Gold.PLP.Fitness>
21.6957

> <Gold.PLP.PLP>
-18.1726

> <Gold.PLP.part.hbond>
-2.8035

> <Gold.PLP.part.metal>
0.0000

> <Gold.PLP.part.buried>
18.9883

> <Gold.PLP.part.nonpolar>
-41.2710

> <Gold.PLP.part.repulsive>
6.4261

> <Gold.PLP.ligand.clash>
0.0000

> <Gold.PLP.ligand.torsion>
0.4585

> <Gold.PLP.Chemscore.Hbond>
1.4800

> <Gold.PLP.Chemscore.CHOScore>
0.0000

> <Gold.PLP.Chemscore.Metal>
0.0000

> <Gold.Chemscore.Hbonds>
donor molecule, donor type, donor heavy atom, donor atom, acceptor molecule, acceptor atom, score
      L1  H     8    22       P1 11465  0.37
      P1  H 18462 18501       L1    17  1.00

> <Gold.PLP.Chemscore.Internal.Correction>
   9.000000E+99

#       Name:                CT1002167954
#       Creating user name   hitesit
#       Creation time:       Sun Apr 16 22:59:48 2023


#       File generated by GOLD software.
#

@<TRIPOS>MOLECULE
CT1002167954|ligand_prepared|mol2|1|dock1
    29    30     1
SMALL
NO_CHARGES


@<TRIPOS>ATOM
      1 C1         229.5739  20.3624  11.8815 C.3            1 RES1               0.0000
      2 C2         228.9339  21.7581  11.7365 C.ar           1 RES1               0.0000
      3 C3         228.4273  19.3902  12.1430 C.2            1 RES1               0.0000
      4 C4         230.3269  20.1012  10.5817 C.2            1 RES1               0.0000
      5 C5         230.5836  20.2562  13.0481 C.3            1 RES1               0.0000
      6 C6         228.4134  22.1755  10.5152 C.ar           1 RES1               0.0000
      7 C7         228.8543  22.6367  12.8137 C.ar           1 RES1               0.0000
      8 N8         228.0578  18.5607  11.1255 N.am           1 RES1               0.0000
      9 O9         227.8303  19.3791  13.2125 O.2            1 RES1               0.0000
     10 N10        229.8825  19.0865   9.7750 N.am           1 RES1               0.0000
     11 O11        231.2908  20.7757  10.2407 O.2            1 RES1               0.0000
     12 C12        231.4366  18.9981  13.0081 C.3            1 RES1               0.0000
     13 C13        227.8318  23.4249  10.3764 C.ar           1 RES1               0.0000
     14 C14        228.2724  23.8857  12.6727 C.ar           1 RES1               0.0000
     15 C15        228.7635  18.3244   9.9732 C.2            1 RES1               0.0000
     16 C16        227.7605  24.2805  11.4550 C.ar           1 RES1               0.0000
     17 O17        228.3979  17.4667   9.1745 O.2            1 RES1               0.0000
     18 H18        231.2442  21.1316  13.0241 H              1 RES1               0.0000
     19 H19        230.0317  20.2786  13.9959 H              1 RES1               0.0000
     20 H20        228.4627  21.5168   9.6545 H              1 RES1               0.0000
     21 H21        229.2514  22.3478  13.7808 H              1 RES1               0.0000
     22 H22        227.1751  18.0708  11.2311 H              1 RES1               0.0000
     23 H23        230.4374  18.8801   8.9505 H              1 RES1               0.0000
     24 H24        232.1273  18.9735  13.8484 H              1 RES1               0.0000
     25 H25        230.8131  18.1077  13.0558 H              1 RES1               0.0000
     26 H26        232.0185  18.9556  12.0897 H              1 RES1               0.0000
     27 H27        227.4316  23.7313   9.4156 H              1 RES1               0.0000
     28 H28        228.2190  24.5561  13.5241 H              1 RES1               0.0000
     29 H29        227.3045  25.2590  11.3461 H              1 RES1               0.0000
@<TRIPOS>BOND
    1    1    2 1     
    2    1    3 1     
    3    1    4 1     
    4    1    5 1     
    5    2    6 ar    
    6    2    7 ar    
    7    3    8 1     
    8    3    9 2     
    9    4   10 1     
   10    4   11 2     
   11    5   12 1     
   12    5   18 1     
   13    5   19 1     
   14    6   13 ar    
   15    6   20 1     
   16    7   14 ar    
   17    7   21 1     
   18    8   15 1     
   19    8   22 1     
   20   10   15 1     
   21   10   23 1     
   22   12   24 1     
   23   12   25 1     
   24   12   26 1     
   25   13   16 ar    
   26   13   27 1     
   27   14   16 ar    
   28   14   28 1     
   29   15   17 2     
   30   16   29 1     
@<TRIPOS>SUBSTRUCTURE
      1 RES1           1
@<TRIPOS>SET
DONOR_HYDROGENS      STATIC     ATOMS    <user>   **** ""
2 22 23
ATOM$RED        STATIC     ATOMS    COLORGROUP SYSTEM
2 22 23
@<TRIPOS>COMMENT
> <Gold.Version>
2022.3.0

> <Gold.Id.Protein>
unknown|4v3u_clean|pdb

> <Gold.Protein.RotatedTorsions>
[  594  544  543  542 ] final   83.61 input   59.98 | X-H torsion
[  739  695  696  697 ] final  106.65 input   98.51 | X-H torsion
[ 2556 2523 2524 2525 ] final   26.26 input  111.11 | X-H torsion
[ 2627 2595 2596 2597 ] final  175.08 input   53.40 | X-H torsion
[ 26082 26043 26042 26040 ] final  -85.64 input   60.02 | X-H torsion
[ 27179 27119 27118 27114 ] final  154.79 input   60.01 | X-H torsion
[ 7426 7411 7412 7413 ] final   70.39 input   83.97 | X-H torsion
[ 7476 7453 7454 7455 ] final  -60.84 input   94.79 | X-H torsion
[ 7522 7511 7512 7513 ] final  124.64 input   85.82 | X-H torsion
[ 17193 17173 17174 17175 ] final   40.39 input   42.33 | X-H torsion
[ 17249 17217 17218 17219 ] final -109.87 input  107.71 | X-H torsion
[ 18293 18271 18272 18273 ] final   46.48 input   26.15 | X-H torsion
[ 18325 18311 18312 18313 ] final   49.87 input   53.27 | X-H torsion
[ 18407 18359 18360 18361 ] final  126.18 input   33.85 | X-H torsion
[ 18493 18451 18452 18453 ] final  108.33 input  113.35 | X-H torsion
[ 18561 18527 18528 18529 ] final -149.74 input   85.91 | X-H torsion
[ 18501 18462 18461 18459 ] final   64.04 input   59.98 | X-H torsion
[ 18241 18201 18202 18203 ] final  -90.34 input   44.19 | X-H torsion
[ 18297 18276 18275 18272 ] final  147.61 input   59.98 | X-H torsion
[ 10099 10092 10091 10088 ] final   19.54 input   59.98 | X-H torsion
[ 17301 17279 17280 17281 ] final  -63.65 input   44.55 | X-H torsion
[ 16993 16954 16953 16951 ] final  -28.38 input   59.99 | X-H torsion
[ 11475 11457 11458 11459 ] final   42.45 input   48.15 | X-H torsion
[ 11539 11523 11524 11525 ] final -129.71 input  117.79 | X-H torsion
[ 11615 11599 11600 11601 ] final  -88.79 input   58.98 | X-H torsion
[ 11423 11412 11411 11408 ] final  132.81 input   60.01 | X-H torsion
[ 27181 27121 27120 27118 ] final   16.04 input   60.02 | X-H torsion
[ 10139 10129 10130 10131 ] final  171.35 input   28.23 | X-H torsion
[ 17356 17327 17328 17329 ] final   53.28 input   73.50 | X-H torsion
[ 27201  698  697  696 ] final  106.23 input    0.00 | X-H torsion
[ 27204 2526 2525 2524 ] final  -68.37 input    0.00 | X-H torsion
[ 27228 7328 7327 7326 ] final -118.93 input    0.00 | X-H torsion
[ 27233 7514 7513 7512 ] final -104.67 input    0.00 | X-H torsion
[ 27236 17124 17123 17122 ] final  -92.00 input    0.00 | X-H torsion
[ 27240 18204 18203 18202 ] final  -72.24 input    0.00 | X-H torsion
[ 27243 18274 18273 18272 ] final -177.85 input    0.00 | X-H torsion
[ 27246 18314 18313 18312 ] final  -12.13 input   -0.00 | X-H torsion
[ 27249 18362 18361 18360 ] final  136.74 input    0.00 | X-H torsion
[ 27257 17176 17175 17174 ] final  -71.44 input   -0.00 | X-H torsion
[ 27259 17220 17219 17218 ] final   96.16 input   -0.00 | X-H torsion
[ 27261 17050 17049 17048 ] final  -72.44 input    0.00 | X-H torsion
[ 27270 10132 10131 10130 ] final   45.63 input    0.00 | X-H torsion
[ 27272 11410 11409 11408 ] final   34.04 input   -0.00 | X-H torsion
[ 27279 11602 11601 11600 ] final  136.25 input    0.00 | X-H torsion
[ 27288 18684 18683 18682 ] final  -37.74 input   -0.00 | X-H torsion

> <Gold.Protein.ActiveResidues>
 LYS309  TRP311  GLU314  MET341  HIS342  TRP414  ALA417  ARG419  CYS420  VAL421 
 GLY422  ARG423  LEU460  SER462  ALA463  SER482  GLN483  LEU484  ILE485  ARG486 
 ALA502  TRP566  TYR567  LEU569  PRO570  ALA571  VAL572  SER573  ASN574  MET575 
 PHE589  SER590  GLY591  TRP592  TYR593  MET594  GLU597  ILE598  ARG601  ASP602 
 ASP605  ARG608  TRP683  PHE696  HIS697  GLU699  TYR711  ASP714  HEM750  H4B760 

> <Gold.Protein.RotatedAtoms>
  221.2416    8.7031   18.2449 H   0  0  0  0  0  0  0  0  0  0  0  0  # atno 594  bound_to 544 
  220.1716    7.4377   18.2239 H   0  0  0  0  0  0  0  0  0  0  0  0  # atno 595  bound_to 544 
  220.1919    8.4851   19.5088 H   0  0  0  0  0  0  0  0  0  0  0  0  # atno 596  bound_to 544 
  227.8537    7.7843   20.5591 H   0  0  0  0  0  0  0  0  0  0  0  0  # atno 739  bound_to 695 
  224.1726   13.5423   25.9657 H   0  0  0  0  0  0  0  0  0  0  0  0  # atno 2556 bound_to 2523
  222.8330   15.2186   24.0894 H   0  0  0  0  0  0  0  0  0  0  0  0  # atno 2627 bound_to 2595
  229.6957   27.1813   22.8073 H   0  0  0  0  0  0  0  0  0  0  0  0  # atno 7426 bound_to 7411
  232.2594   27.9969   20.8154 H   0  0  0  0  0  0  0  0  0  0  0  0  # atno 7476 bound_to 7453
  233.2718   28.8730   18.8566 H   0  0  0  0  0  0  0  0  0  0  0  0  # atno 7522 bound_to 7511
  230.8163   35.3467   11.7981 H   0  0  0  0  0  0  0  0  0  0  0  0  # atno 10099 bound_to 10092
  227.0172   36.0572   10.3472 H   0  0  0  0  0  0  0  0  0  0  0  0  # atno 10139 bound_to 10129
  222.4163   18.4488    9.8907 H   0  0  0  0  0  0  0  0  0  0  0  0  # atno 11423 bound_to 11412
  221.2309   21.0907    7.9716 H   0  0  0  0  0  0  0  0  0  0  0  0  # atno 11475 bound_to 11457
  221.4678   24.4308    7.3300 H   0  0  0  0  0  0  0  0  0  0  0  0  # atno 11539 bound_to 11523
  222.6692   24.0461    4.5024 H   0  0  0  0  0  0  0  0  0  0  0  0  # atno 11615 bound_to 11599
  228.5294   21.0950    7.0321 H   0  0  0  0  0  0  0  0  0  0  0  0  # atno 16993 bound_to 16954
  226.3794   25.6901    8.1322 H   0  0  0  0  0  0  0  0  0  0  0  0  # atno 17193 bound_to 17173
  224.5606   25.9011   10.1994 H   0  0  0  0  0  0  0  0  0  0  0  0  # atno 17249 bound_to 17217
  221.1437   25.2342   12.3333 H   0  0  0  0  0  0  0  0  0  0  0  0  # atno 17301 bound_to 17279
  219.6547   23.9568   13.0663 H   0  0  0  0  0  0  0  0  0  0  0  0  # atno 17356 bound_to 17327
  221.2606   30.3146   10.8420 H   0  0  0  0  0  0  0  0  0  0  0  0  # atno 18241 bound_to 18201
  224.9723   32.3669   11.1762 H   0  0  0  0  0  0  0  0  0  0  0  0  # atno 18293 bound_to 18271
  226.5008   32.2596    7.6328 H   0  0  0  0  0  0  0  0  0  0  0  0  # atno 18297 bound_to 18276
  228.7600   30.0626   10.8951 H   0  0  0  0  0  0  0  0  0  0  0  0  # atno 18325 bound_to 18311
  232.2058   31.7384   10.8717 H   0  0  0  0  0  0  0  0  0  0  0  0  # atno 18407 bound_to 18359
  234.3261   28.2198    8.5750 H   0  0  0  0  0  0  0  0  0  0  0  0  # atno 18493 bound_to 18451
  229.8676   22.6480    8.3168 H   0  0  0  0  0  0  0  0  0  0  0  0  # atno 18501 bound_to 18462
  235.8621   26.9945   11.9360 H   0  0  0  0  0  0  0  0  0  0  0  0  # atno 18561 bound_to 18527
  224.3905   19.2481   20.9963 H   0  0  0  0  0  0  0  0  0  0  0  0  # atno 26082 bound_to 26043
  230.6655   11.4041   21.6140 H   0  0  0  0  0  0  0  0  0  0  0  0  # atno 27179 bound_to 27119
  229.0073   14.3241   23.8995 H   0  0  0  0  0  0  0  0  0  0  0  0  # atno 27181 bound_to 27121
  226.9526    6.3380   20.1827 LP  0  0  0  0  0  0  0  0  0  0  0  0  # atno 27200 bound_to 695 
  227.4851    8.3213   15.7591 LP  0  0  0  0  0  0  0  0  0  0  0  0  # atno 27201 bound_to 698 
  226.0929    7.3182   15.9950 LP  0  0  0  0  0  0  0  0  0  0  0  0  # atno 27202 bound_to 698 
  225.8875   13.6385   25.6559 LP  0  0  0  0  0  0  0  0  0  0  0  0  # atno 27203 bound_to 2523
  223.9291   17.5644   25.2815 LP  0  0  0  0  0  0  0  0  0  0  0  0  # atno 27204 bound_to 2526
  222.9409   17.4612   23.8628 LP  0  0  0  0  0  0  0  0  0  0  0  0  # atno 27205 bound_to 2526
  222.7794   14.5030   25.6856 LP  0  0  0  0  0  0  0  0  0  0  0  0  # atno 27206 bound_to 2595
  224.3717   20.4347   22.1101 LP  0  0  0  0  0  0  0  0  0  0  0  0  # atno 27210 bound_to 26043
  224.4706   20.8031   20.5223 LP  0  0  0  0  0  0  0  0  0  0  0  0  # atno 27211 bound_to 26043
  231.6262   12.6212   21.1187 LP  0  0  0  0  0  0  0  0  0  0  0  0  # atno 27214 bound_to 27119
  230.2067   12.3384   20.3627 LP  0  0  0  0  0  0  0  0  0  0  0  0  # atno 27215 bound_to 27119
  231.7737   24.7564   21.3089 LP  0  0  0  0  0  0  0  0  0  0  0  0  # atno 27228 bound_to 7328
  230.3392   23.8860   20.8793 LP  0  0  0  0  0  0  0  0  0  0  0  0  # atno 27229 bound_to 7328
  229.9315   25.6331   22.0379 LP  0  0  0  0  0  0  0  0  0  0  0  0  # atno 27230 bound_to 7411
  232.8923   26.5590   20.0488 LP  0  0  0  0  0  0  0  0  0  0  0  0  # atno 27231 bound_to 7453
  234.0725   29.6195   20.2171 LP  0  0  0  0  0  0  0  0  0  0  0  0  # atno 27232 bound_to 7511
  233.9173   33.9285   18.5041 LP  0  0  0  0  0  0  0  0  0  0  0  0  # atno 27233 bound_to 7514
  232.5014   33.2317   17.7901 LP  0  0  0  0  0  0  0  0  0  0  0  0  # atno 27234 bound_to 7514
  227.9387   28.0862   10.4700 LP  0  0  0  0  0  0  0  0  0  0  0  0  # atno 27236 bound_to 17124
  227.7587   29.0683    9.0547 LP  0  0  0  0  0  0  0  0  0  0  0  0  # atno 27237 bound_to 17124
  227.3280   27.0307    8.7254 LP  0  0  0  0  0  0  0  0  0  0  0  0  # atno 27238 bound_to 17173
  224.3499   27.2548   11.2924 LP  0  0  0  0  0  0  0  0  0  0  0  0  # atno 27239 bound_to 17217
  224.3473   28.6825   11.9307 LP  0  0  0  0  0  0  0  0  0  0  0  0  # atno 27240 bound_to 18204
  224.2885   28.9931   10.2278 LP  0  0  0  0  0  0  0  0  0  0  0  0  # atno 27241 bound_to 18204
  224.5570   30.7329   11.6209 LP  0  0  0  0  0  0  0  0  0  0  0  0  # atno 27242 bound_to 18271
  228.2655   33.4830   11.4303 LP  0  0  0  0  0  0  0  0  0  0  0  0  # atno 27243 bound_to 18274
  226.5615   33.3538   11.1482 LP  0  0  0  0  0  0  0  0  0  0  0  0  # atno 27244 bound_to 18274
  227.8927   31.5757   11.0410 LP  0  0  0  0  0  0  0  0  0  0  0  0  # atno 27245 bound_to 18311
  229.8784   31.8730    8.7238 LP  0  0  0  0  0  0  0  0  0  0  0  0  # atno 27246 bound_to 18314
  231.5234   31.4857    8.3445 LP  0  0  0  0  0  0  0  0  0  0  0  0  # atno 27247 bound_to 18314
  231.3752   30.2082   11.0393 LP  0  0  0  0  0  0  0  0  0  0  0  0  # atno 27248 bound_to 18359
  233.4731   27.8958   12.0140 LP  0  0  0  0  0  0  0  0  0  0  0  0  # atno 27249 bound_to 18362
  233.9217   29.5596   12.1885 LP  0  0  0  0  0  0  0  0  0  0  0  0  # atno 27250 bound_to 18362
  233.7640   28.6467   10.1728 LP  0  0  0  0  0  0  0  0  0  0  0  0  # atno 27251 bound_to 18451
  235.4295   25.3285   11.6337 LP  0  0  0  0  0  0  0  0  0  0  0  0  # atno 27252 bound_to 18527
  222.7879   25.9395    8.4355 LP  0  0  0  0  0  0  0  0  0  0  0  0  # atno 27257 bound_to 17176
  223.7130   24.5691    8.9515 LP  0  0  0  0  0  0  0  0  0  0  0  0  # atno 27258 bound_to 17176
  221.3925   27.7992   10.8662 LP  0  0  0  0  0  0  0  0  0  0  0  0  # atno 27259 bound_to 17220
  221.3300   27.6746   12.5926 LP  0  0  0  0  0  0  0  0  0  0  0  0  # atno 27260 bound_to 17220
  227.1703   26.6033    5.2790 LP  0  0  0  0  0  0  0  0  0  0  0  0  # atno 27261 bound_to 17050
  228.3970   25.3916    5.4435 LP  0  0  0  0  0  0  0  0  0  0  0  0  # atno 27262 bound_to 17050
  230.8870   21.4581    7.8777 LP  0  0  0  0  0  0  0  0  0  0  0  0  # atno 27263 bound_to 18462
  230.3653   22.5400    6.7714 LP  0  0  0  0  0  0  0  0  0  0  0  0  # atno 27264 bound_to 18462
  221.5588   29.5165   12.3691 LP  0  0  0  0  0  0  0  0  0  0  0  0  # atno 27265 bound_to 18201
  226.5097   32.8434    9.1521 LP  0  0  0  0  0  0  0  0  0  0  0  0  # atno 27266 bound_to 18276
  225.1046   32.3805    8.4606 LP  0  0  0  0  0  0  0  0  0  0  0  0  # atno 27267 bound_to 18276
  230.2809   34.4437   13.0414 LP  0  0  0  0  0  0  0  0  0  0  0  0  # atno 27268 bound_to 10092
  230.8794   35.9387   13.3125 LP  0  0  0  0  0  0  0  0  0  0  0  0  # atno 27269 bound_to 10092
  225.0210   33.6448   11.7204 LP  0  0  0  0  0  0  0  0  0  0  0  0  # atno 27270 bound_to 10132
  223.4942   33.1958   11.0368 LP  0  0  0  0  0  0  0  0  0  0  0  0  # atno 27271 bound_to 10132
  221.3121   22.0751   11.7564 LP  0  0  0  0  0  0  0  0  0  0  0  0  # atno 27272 bound_to 11410
  221.4796   23.3844   10.6349 LP  0  0  0  0  0  0  0  0  0  0  0  0  # atno 27273 bound_to 11410
  221.3602   24.7303   10.6773 LP  0  0  0  0  0  0  0  0  0  0  0  0  # atno 27274 bound_to 17279
  228.5668   19.7414    6.1300 LP  0  0  0  0  0  0  0  0  0  0  0  0  # atno 27275 bound_to 16954
  227.1963   20.6240    6.2268 LP  0  0  0  0  0  0  0  0  0  0  0  0  # atno 27276 bound_to 16954
  221.2085   21.6805    9.6215 LP  0  0  0  0  0  0  0  0  0  0  0  0  # atno 27277 bound_to 11457
  223.1313   24.5184    6.8065 LP  0  0  0  0  0  0  0  0  0  0  0  0  # atno 27278 bound_to 11523
  225.8245   21.4753    5.3012 LP  0  0  0  0  0  0  0  0  0  0  0  0  # atno 27279 bound_to 11602
  226.6079   22.7944    4.4974 LP  0  0  0  0  0  0  0  0  0  0  0  0  # atno 27280 bound_to 11602
  224.1504   24.8975    4.8609 LP  0  0  0  0  0  0  0  0  0  0  0  0  # atno 27283 bound_to 11599
  221.6718   19.3799    8.7826 LP  0  0  0  0  0  0  0  0  0  0  0  0  # atno 27286 bound_to 11412
  221.1160   17.8768    9.0963 LP  0  0  0  0  0  0  0  0  0  0  0  0  # atno 27287 bound_to 11412
  234.4429   17.7992   11.6296 LP  0  0  0  0  0  0  0  0  0  0  0  0  # atno 27288 bound_to 18684
  233.9176   18.1713   10.0217 LP  0  0  0  0  0  0  0  0  0  0  0  0  # atno 27289 bound_to 18684

> <Gold.Score>
     Fitness  S(hb_ext) S(vdw_ext)  S(hb_int)    S(int)      intcor
     35.20       1.47      24.68       0.00      -0.20      -0.80

> <Gold.Goldscore.Fitness>
35.2004

> <Gold.Goldscore.Internal.Vdw>
-0.3797

> <Gold.Goldscore.Internal.Torsion>
-0.6192

> <Gold.Goldscore.External.Vdw>
24.6773

> <Gold.Goldscore.Internal.HBond>
0.0000

> <Gold.Goldscore.External.HBond>
1.4665

> <Gold.Goldscore.Internal.Correction>
-0.8016

> <Gold.Goldscore.Hbonds>
donor molecule, donor type, donor heavy atom, donor atom, acceptor molecule, acceptor atom, score
      P1  H 11464 11481       L1    17  0.11
      P1  H 19343 19392       L1    17  0.14
      L1  H    10    23       P1 19010  0.07

> <Gold.Goldscore.Internal.Vdw.Weighted>
-0.3797

> <Gold.Goldscore.Internal.Torsion.Weighted>
-0.6192

> <Gold.Goldscore.External.Vdw.Weighted>
33.9312

> <Gold.Goldscore.Internal.HBond.Weighted>
0.0000

> <Gold.Goldscore.External.HBond.Weighted>
1.4665

> <Gold.Goldscore.Internal.Correction.Weighted>
-0.8016

> <Gold.Rescore>
     Score     S(PLP)   S(hbond)     S(cho)   S(metal)  DE(clash)   DE(tors)     intcor
     30.11     -28.32       1.37       0.00       0.00       0.00       1.16       ----

> <Gold.PLP.Fitness>
30.1081

> <Gold.PLP.PLP>
-28.3206

> <Gold.PLP.part.hbond>
-5.1261

> <Gold.PLP.part.metal>
0.0000

> <Gold.PLP.part.buried>
-0.0835

> <Gold.PLP.part.nonpolar>
-28.3209

> <Gold.PLP.part.repulsive>
4.5674

> <Gold.PLP.ligand.clash>
0.0001

> <Gold.PLP.ligand.torsion>
1.1599

> <Gold.PLP.Chemscore.Hbond>
1.3691

> <Gold.PLP.Chemscore.CHOScore>
0.0000

> <Gold.PLP.Chemscore.Metal>
0.0000

> <Gold.Chemscore.Hbonds>
donor molecule, donor type, donor heavy atom, donor atom, acceptor molecule, acceptor atom, score
      P1  H 11691 11741       L1    17  0.35
      P1  H 19343 19392       L1    17  0.59

> <Gold.PLP.Chemscore.Internal.Correction>
   9.000000E+99

#       Name:                CT1002167954
#       Creating user name   hitesit
#       Creation time:       Sun Apr 16 22:59:53 2023


#       File generated by GOLD software.
#

@<TRIPOS>MOLECULE
CT1002167954|ligand_prepared|mol2|1|dock8
    29    30     1
SMALL
NO_CHARGES


@<TRIPOS>ATOM
      1 C1         227.0172  21.7406  13.7144 C.3            1 RES1               0.0000
      2 C2         227.7422  23.0992  13.8000 C.ar           1 RES1               0.0000
      3 C3         226.5004  21.4415  15.1185 C.2            1 RES1               0.0000
      4 C4         225.9191  21.9081  12.6699 C.2            1 RES1               0.0000
      5 C5         227.9279  20.5735  13.2672 C.3            1 RES1               0.0000
      6 C6         228.6271  23.4944  12.8013 C.ar           1 RES1               0.0000
      7 C7         227.5347  23.9677  14.8683 C.ar           1 RES1               0.0000
      8 N8         225.1611  21.5726  15.3402 N.am           1 RES1               0.0000
      9 O9         227.2615  21.1336  16.0274 O.2            1 RES1               0.0000
     10 N10        224.6169  21.8297  13.0891 N.am           1 RES1               0.0000
     11 O11        226.1698  22.1239  11.4905 O.2            1 RES1               0.0000
     12 C12        227.3154  19.1991  13.4864 C.3            1 RES1               0.0000
     13 C13        229.2787  24.7148  12.8666 C.ar           1 RES1               0.0000
     14 C14        228.1875  25.1876  14.9318 C.ar           1 RES1               0.0000
     15 C15        224.1879  21.7001  14.3819 C.2            1 RES1               0.0000
     16 C16        229.0591  25.5623  13.9315 C.ar           1 RES1               0.0000
     17 O17        222.9986  21.6921  14.6861 O.2            1 RES1               0.0000
     18 H18        228.1562  20.6924  12.2008 H              1 RES1               0.0000
     19 H19        228.8732  20.6311  13.8208 H              1 RES1               0.0000
     20 H20        228.8144  22.8396  11.9568 H              1 RES1               0.0000
     21 H21        226.8542  23.6933  15.6673 H              1 RES1               0.0000
     22 H22        224.8549  21.5764  16.3079 H              1 RES1               0.0000
     23 H23        223.9009  21.8716  12.3708 H              1 RES1               0.0000
     24 H24        227.9953  18.4167  13.1559 H              1 RES1               0.0000
     25 H25        227.0988  19.0370  14.5402 H              1 RES1               0.0000
     26 H26        226.3860  19.0978  12.9298 H              1 RES1               0.0000
     27 H27        229.9647  25.0045  12.0774 H              1 RES1               0.0000
     28 H28        228.0121  25.8512  15.7721 H              1 RES1               0.0000
     29 H29        229.5694  26.5185  13.9822 H              1 RES1               0.0000
@<TRIPOS>BOND
    1    1    2 1     
    2    1    3 1     
    3    1    4 1     
    4    1    5 1     
    5    2    6 ar    
    6    2    7 ar    
    7    3    8 1     
    8    3    9 2     
    9    4   10 1     
   10    4   11 2     
   11    5   12 1     
   12    5   18 1     
   13    5   19 1     
   14    6   13 ar    
   15    6   20 1     
   16    7   14 ar    
   17    7   21 1     
   18    8   15 1     
   19    8   22 1     
   20   10   15 1     
   21   10   23 1     
   22   12   24 1     
   23   12   25 1     
   24   12   26 1     
   25   13   16 ar    
   26   13   27 1     
   27   14   16 ar    
   28   14   28 1     
   29   15   17 2     
   30   16   29 1     
@<TRIPOS>SUBSTRUCTURE
      1 RES1           1
@<TRIPOS>SET
DONOR_HYDROGENS      STATIC     ATOMS    <user>   **** ""
2 22 23
ATOM$RED        STATIC     ATOMS    COLORGROUP SYSTEM
2 22 23
@<TRIPOS>COMMENT
> <Gold.Version>
2022.3.0

> <Gold.Id.Protein>
unknown|4v3u_clean|pdb

> <Gold.Protein.RotatedTorsions>
[  594  544  543  542 ] final -172.71 input   59.98 | X-H torsion
[  739  695  696  697 ] final   48.37 input   98.51 | X-H torsion
[ 2556 2523 2524 2525 ] final -156.32 input  111.11 | X-H torsion
[ 2627 2595 2596 2597 ] final   44.82 input   53.40 | X-H torsion
[ 26082 26043 26042 26040 ] final   26.66 input   60.02 | X-H torsion
[ 27179 27119 27118 27114 ] final  -94.62 input   60.01 | X-H torsion
[ 7426 7411 7412 7413 ] final  103.62 input   83.97 | X-H torsion
[ 7476 7453 7454 7455 ] final   41.32 input   94.79 | X-H torsion
[ 7522 7511 7512 7513 ] final   56.36 input   85.82 | X-H torsion
[ 17193 17173 17174 17175 ] final  -68.84 input   42.33 | X-H torsion
[ 17249 17217 17218 17219 ] final  179.37 input  107.71 | X-H torsion
[ 18293 18271 18272 18273 ] final  159.65 input   26.15 | X-H torsion
[ 18325 18311 18312 18313 ] final   70.78 input   53.27 | X-H torsion
[ 18407 18359 18360 18361 ] final  -19.58 input   33.85 | X-H torsion
[ 18493 18451 18452 18453 ] final  -89.27 input  113.35 | X-H torsion
[ 18561 18527 18528 18529 ] final   11.46 input   85.91 | X-H torsion
[ 18501 18462 18461 18459 ] final   80.88 input   59.98 | X-H torsion
[ 18241 18201 18202 18203 ] final  177.94 input   44.19 | X-H torsion
[ 18297 18276 18275 18272 ] final  -48.08 input   59.98 | X-H torsion
[ 10099 10092 10091 10088 ] final  124.70 input   59.98 | X-H torsion
[ 17301 17279 17280 17281 ] final  157.62 input   44.55 | X-H torsion
[ 16993 16954 16953 16951 ] final  -47.48 input   59.99 | X-H torsion
[ 11475 11457 11458 11459 ] final  -33.20 input   48.15 | X-H torsion
[ 11539 11523 11524 11525 ] final   -3.36 input  117.79 | X-H torsion
[ 11615 11599 11600 11601 ] final   -3.30 input   58.98 | X-H torsion
[ 11423 11412 11411 11408 ] final  -22.79 input   60.01 | X-H torsion
[ 27181 27121 27120 27118 ] final    6.31 input   60.02 | X-H torsion
[ 10139 10129 10130 10131 ] final -158.14 input   28.23 | X-H torsion
[ 17356 17327 17328 17329 ] final  129.09 input   73.50 | X-H torsion
[ 27201  698  697  696 ] final -139.93 input    0.00 | X-H torsion
[ 27204 2526 2525 2524 ] final   48.86 input    0.00 | X-H torsion
[ 27228 7328 7327 7326 ] final -144.99 input    0.00 | X-H torsion
[ 27233 7514 7513 7512 ] final  159.56 input    0.00 | X-H torsion
[ 27236 17124 17123 17122 ] final  -13.40 input    0.00 | X-H torsion
[ 27240 18204 18203 18202 ] final -156.29 input    0.00 | X-H torsion
[ 27243 18274 18273 18272 ] final  134.26 input    0.00 | X-H torsion
[ 27246 18314 18313 18312 ] final   82.16 input   -0.00 | X-H torsion
[ 27249 18362 18361 18360 ] final -166.77 input    0.00 | X-H torsion
[ 27257 17176 17175 17174 ] final  114.52 input   -0.00 | X-H torsion
[ 27259 17220 17219 17218 ] final   84.89 input   -0.00 | X-H torsion
[ 27261 17050 17049 17048 ] final  134.36 input    0.00 | X-H torsion
[ 27270 10132 10131 10130 ] final -135.43 input    0.00 | X-H torsion
[ 27272 11410 11409 11408 ] final -101.86 input   -0.00 | X-H torsion
[ 27279 11602 11601 11600 ] final   99.11 input    0.00 | X-H torsion
[ 27288 18684 18683 18682 ] final   -6.56 input   -0.00 | X-H torsion

> <Gold.Protein.ActiveResidues>
 LYS309  TRP311  GLU314  MET341  HIS342  TRP414  ALA417  ARG419  CYS420  VAL421 
 GLY422  ARG423  LEU460  SER462  ALA463  SER482  GLN483  LEU484  ILE485  ARG486 
 ALA502  TRP566  TYR567  LEU569  PRO570  ALA571  VAL572  SER573  ASN574  MET575 
 PHE589  SER590  GLY591  TRP592  TYR593  MET594  GLU597  ILE598  ARG601  ASP602 
 ASP605  ARG608  TRP683  PHE696  HIS697  GLU699  TYR711  ASP714  HEM750  H4B760 

> <Gold.Protein.RotatedAtoms>
  220.3566    7.5038   18.0366 H   0  0  0  0  0  0  0  0  0  0  0  0  # atno 594  bound_to 544 
  220.0316    8.2679   19.4709 H   0  0  0  0  0  0  0  0  0  0  0  0  # atno 595  bound_to 544 
  221.2162    8.8530   18.4696 H   0  0  0  0  0  0  0  0  0  0  0  0  # atno 596  bound_to 544 
  228.2326    7.1623   20.1087 H   0  0  0  0  0  0  0  0  0  0  0  0  # atno 739  bound_to 695 
  225.8976   13.6069   25.6302 H   0  0  0  0  0  0  0  0  0  0  0  0  # atno 2556 bound_to 2523
  222.4751   14.0750   25.1690 H   0  0  0  0  0  0  0  0  0  0  0  0  # atno 2627 bound_to 2595
  229.2853   27.0944   22.5306 H   0  0  0  0  0  0  0  0  0  0  0  0  # atno 7426 bound_to 7411
  232.6656   27.5287   19.5855 H   0  0  0  0  0  0  0  0  0  0  0  0  # atno 7476 bound_to 7453
  232.8091   29.4110   19.5468 H   0  0  0  0  0  0  0  0  0  0  0  0  # atno 7522 bound_to 7511
  230.9476   36.0440   13.1048 H   0  0  0  0  0  0  0  0  0  0  0  0  # atno 10099 bound_to 10092
  227.0093   36.2465   10.7709 H   0  0  0  0  0  0  0  0  0  0  0  0  # atno 10139 bound_to 10129
  221.2464   19.0345    8.6098 H   0  0  0  0  0  0  0  0  0  0  0  0  # atno 11423 bound_to 11412
  220.5251   21.7963    8.4232 H   0  0  0  0  0  0  0  0  0  0  0  0  # atno 11475 bound_to 11457
  222.7502   23.8522    6.6272 H   0  0  0  0  0  0  0  0  0  0  0  0  # atno 11539 bound_to 11523
  223.5788   23.8153    5.2424 H   0  0  0  0  0  0  0  0  0  0  0  0  # atno 11615 bound_to 11599
  228.7628   20.8960    6.9826 H   0  0  0  0  0  0  0  0  0  0  0  0  # atno 16993 bound_to 16954
  227.0913   26.2106    9.2676 H   0  0  0  0  0  0  0  0  0  0  0  0  # atno 17193 bound_to 17173
  225.1086   26.0658   11.0619 H   0  0  0  0  0  0  0  0  0  0  0  0  # atno 17249 bound_to 17217
  221.5378   25.3157   10.7397 H   0  0  0  0  0  0  0  0  0  0  0  0  # atno 17301 bound_to 17279
  219.4355   23.4016   12.1671 H   0  0  0  0  0  0  0  0  0  0  0  0  # atno 17356 bound_to 17327
  220.8662   30.4637   12.0423 H   0  0  0  0  0  0  0  0  0  0  0  0  # atno 18241 bound_to 18201
  224.2809   31.1360   10.7943 H   0  0  0  0  0  0  0  0  0  0  0  0  # atno 18293 bound_to 18271
  225.3777   32.6447    9.0591 H   0  0  0  0  0  0  0  0  0  0  0  0  # atno 18297 bound_to 18276
  228.7001   30.0654   11.2121 H   0  0  0  0  0  0  0  0  0  0  0  0  # atno 18325 bound_to 18311
  231.7389   30.1982   11.4046 H   0  0  0  0  0  0  0  0  0  0  0  0  # atno 18407 bound_to 18359
  233.5404   28.5169   10.1034 H   0  0  0  0  0  0  0  0  0  0  0  0  # atno 18493 bound_to 18451
  229.8026   22.8091    8.1048 H   0  0  0  0  0  0  0  0  0  0  0  0  # atno 18501 bound_to 18462
  235.5603   25.3687   11.3823 H   0  0  0  0  0  0  0  0  0  0  0  0  # atno 18561 bound_to 18527
  224.4691   20.7013   20.4472 H   0  0  0  0  0  0  0  0  0  0  0  0  # atno 26082 bound_to 26043
  230.1279   12.2209   20.4241 H   0  0  0  0  0  0  0  0  0  0  0  0  # atno 27179 bound_to 27119
  229.1355   14.4163   23.8822 H   0  0  0  0  0  0  0  0  0  0  0  0  # atno 27181 bound_to 27121
  226.5795    6.9504   20.6262 LP  0  0  0  0  0  0  0  0  0  0  0  0  # atno 27200 bound_to 695 
  226.8864    7.0110   15.5831 LP  0  0  0  0  0  0  0  0  0  0  0  0  # atno 27201 bound_to 698 
  226.6917    8.6285   16.1710 LP  0  0  0  0  0  0  0  0  0  0  0  0  # atno 27202 bound_to 698 
  224.1893   13.5750   25.9862 LP  0  0  0  0  0  0  0  0  0  0  0  0  # atno 27203 bound_to 2523
  223.8413   17.4611   23.8091 LP  0  0  0  0  0  0  0  0  0  0  0  0  # atno 27204 bound_to 2526
  223.0286   17.5645   25.3352 LP  0  0  0  0  0  0  0  0  0  0  0  0  # atno 27205 bound_to 2526
  223.1261   15.6109   24.6398 LP  0  0  0  0  0  0  0  0  0  0  0  0  # atno 27206 bound_to 2595
  224.3851   19.2217   21.1199 LP  0  0  0  0  0  0  0  0  0  0  0  0  # atno 27210 bound_to 26043
  224.3781   20.5530   22.0654 LP  0  0  0  0  0  0  0  0  0  0  0  0  # atno 27211 bound_to 26043
  230.8018   11.4344   21.6798 LP  0  0  0  0  0  0  0  0  0  0  0  0  # atno 27214 bound_to 27119
  231.5722   12.7032   20.9992 LP  0  0  0  0  0  0  0  0  0  0  0  0  # atno 27215 bound_to 27119
  231.6349   24.9596   21.0057 LP  0  0  0  0  0  0  0  0  0  0  0  0  # atno 27228 bound_to 7328
  230.4781   23.6828   21.1826 LP  0  0  0  0  0  0  0  0  0  0  0  0  # atno 27229 bound_to 7328
  230.3360   25.7188   22.3106 LP  0  0  0  0  0  0  0  0  0  0  0  0  # atno 27230 bound_to 7411
  232.4962   27.0155   21.2480 LP  0  0  0  0  0  0  0  0  0  0  0  0  # atno 27231 bound_to 7453
  234.5261   29.0922   19.5406 LP  0  0  0  0  0  0  0  0  0  0  0  0  # atno 27232 bound_to 7511
  232.6542   33.8886   18.7358 LP  0  0  0  0  0  0  0  0  0  0  0  0  # atno 27233 bound_to 7514
  233.7645   33.2716   17.5583 LP  0  0  0  0  0  0  0  0  0  0  0  0  # atno 27234 bound_to 7514
  228.7041   28.4422    9.7693 LP  0  0  0  0  0  0  0  0  0  0  0  0  # atno 27236 bound_to 17124
  226.9933   28.7123    9.7555 LP  0  0  0  0  0  0  0  0  0  0  0  0  # atno 27237 bound_to 17124
  226.6300   26.5203    7.6121 LP  0  0  0  0  0  0  0  0  0  0  0  0  # atno 27238 bound_to 17173
  223.8236   27.0967   10.4641 LP  0  0  0  0  0  0  0  0  0  0  0  0  # atno 27239 bound_to 17217
  225.1792   28.8929   11.1509 LP  0  0  0  0  0  0  0  0  0  0  0  0  # atno 27240 bound_to 18204
  223.4566   28.7828   11.0076 LP  0  0  0  0  0  0  0  0  0  0  0  0  # atno 27241 bound_to 18204
  225.2416   31.9517   11.9991 LP  0  0  0  0  0  0  0  0  0  0  0  0  # atno 27242 bound_to 18271
  227.8915   33.3329   12.0063 LP  0  0  0  0  0  0  0  0  0  0  0  0  # atno 27243 bound_to 18274
  226.9355   33.5040   10.5722 LP  0  0  0  0  0  0  0  0  0  0  0  0  # atno 27244 bound_to 18274
  227.9506   31.5729   10.7340 LP  0  0  0  0  0  0  0  0  0  0  0  0  # atno 27245 bound_to 18311
  230.9845   32.4907    8.6404 LP  0  0  0  0  0  0  0  0  0  0  0  0  # atno 27246 bound_to 18314
  230.4172   30.8681    8.4279 LP  0  0  0  0  0  0  0  0  0  0  0  0  # atno 27247 bound_to 18314
  231.8290   31.7052   10.5213 LP  0  0  0  0  0  0  0  0  0  0  0  0  # atno 27248 bound_to 18359
  234.2710   28.0825   12.0330 LP  0  0  0  0  0  0  0  0  0  0  0  0  # atno 27249 bound_to 18362
  233.1238   29.3729   12.1696 LP  0  0  0  0  0  0  0  0  0  0  0  0  # atno 27250 bound_to 18362
  234.5338   28.3556    8.6757 LP  0  0  0  0  0  0  0  0  0  0  0  0  # atno 27251 bound_to 18451
  235.7244   26.9175   12.1748 LP  0  0  0  0  0  0  0  0  0  0  0  0  # atno 27252 bound_to 18527
  223.6536   24.5603    9.0187 LP  0  0  0  0  0  0  0  0  0  0  0  0  # atno 27257 bound_to 17176
  222.8473   25.9484    8.3683 LP  0  0  0  0  0  0  0  0  0  0  0  0  # atno 27258 bound_to 17176
  221.5573   27.8330   10.8914 LP  0  0  0  0  0  0  0  0  0  0  0  0  # atno 27259 bound_to 17220
  221.1652   27.6408   12.5675 LP  0  0  0  0  0  0  0  0  0  0  0  0  # atno 27260 bound_to 17220
  228.2320   25.4071    5.8090 LP  0  0  0  0  0  0  0  0  0  0  0  0  # atno 27261 bound_to 17050
  227.3353   26.5877    4.9135 LP  0  0  0  0  0  0  0  0  0  0  0  0  # atno 27262 bound_to 17050
  230.7808   21.5090    8.1274 LP  0  0  0  0  0  0  0  0  0  0  0  0  # atno 27263 bound_to 18462
  230.5369   22.3268    6.7352 LP  0  0  0  0  0  0  0  0  0  0  0  0  # atno 27264 bound_to 18462
  221.9424   29.3715   11.2013 LP  0  0  0  0  0  0  0  0  0  0  0  0  # atno 27265 bound_to 18201
  225.8046   32.1405    7.5716 LP  0  0  0  0  0  0  0  0  0  0  0  0  # atno 27266 bound_to 18276
  226.9400   32.6958    8.6056 LP  0  0  0  0  0  0  0  0  0  0  0  0  # atno 27267 bound_to 18276
  230.7257   35.1221   11.7825 LP  0  0  0  0  0  0  0  0  0  0  0  0  # atno 27268 bound_to 10092
  230.3024   34.5578   13.2553 LP  0  0  0  0  0  0  0  0  0  0  0  0  # atno 27269 bound_to 10092
  223.4877   33.1963   11.0514 LP  0  0  0  0  0  0  0  0  0  0  0  0  # atno 27270 bound_to 10132
  225.0275   33.6443   11.7058 LP  0  0  0  0  0  0  0  0  0  0  0  0  # atno 27271 bound_to 10132
  220.8726   23.3342   10.8626 LP  0  0  0  0  0  0  0  0  0  0  0  0  # atno 27272 bound_to 11410
  221.9190   22.1253   11.5287 LP  0  0  0  0  0  0  0  0  0  0  0  0  # atno 27273 bound_to 11410
  220.9715   24.6498   12.2494 LP  0  0  0  0  0  0  0  0  0  0  0  0  # atno 27274 bound_to 17279
  228.2885   19.6929    5.9951 LP  0  0  0  0  0  0  0  0  0  0  0  0  # atno 27275 bound_to 16954
  227.2394   20.8729    6.4116 LP  0  0  0  0  0  0  0  0  0  0  0  0  # atno 27276 bound_to 16954
  221.8874   21.0020    9.1872 LP  0  0  0  0  0  0  0  0  0  0  0  0  # atno 27277 bound_to 11457
  221.8724   25.0863    7.4963 LP  0  0  0  0  0  0  0  0  0  0  0  0  # atno 27278 bound_to 11523
  225.6379   21.9477    5.5161 LP  0  0  0  0  0  0  0  0  0  0  0  0  # atno 27279 bound_to 11602
  226.7945   22.3220    4.2824 LP  0  0  0  0  0  0  0  0  0  0  0  0  # atno 27280 bound_to 11602
  223.2562   25.1245    4.1335 LP  0  0  0  0  0  0  0  0  0  0  0  0  # atno 27283 bound_to 11599
  221.4842   17.6925    9.4994 LP  0  0  0  0  0  0  0  0  0  0  0  0  # atno 27286 bound_to 11412
  222.4811   18.9748    9.6686 LP  0  0  0  0  0  0  0  0  0  0  0  0  # atno 27287 bound_to 11412
  234.0450   18.0356   11.6796 LP  0  0  0  0  0  0  0  0  0  0  0  0  # atno 27288 bound_to 18684
  234.3154   17.9348    9.9717 LP  0  0  0  0  0  0  0  0  0  0  0  0  # atno 27289 bound_to 18684

> <Gold.Score>
     Fitness  S(hb_ext) S(vdw_ext)  S(hb_int)    S(int)      intcor
     34.63       4.52      22.82       0.00      -1.27      -0.77

> <Gold.Goldscore.Fitness>
34.6263

> <Gold.Goldscore.Internal.Vdw>
-1.3858

> <Gold.Goldscore.Internal.Torsion>
-0.6481

> <Gold.Goldscore.External.Vdw>
22.8209

> <Gold.Goldscore.Internal.HBond>
0.0000

> <Gold.Goldscore.External.HBond>
4.5162

> <Gold.Goldscore.Internal.Correction>
-0.7653

> <Gold.Goldscore.Hbonds>
donor molecule, donor type, donor heavy atom, donor atom, acceptor molecule, acceptor atom, score
      L1  H     8    22       P1 26876  0.71
      L1  H    10    23       P1 11410  0.12

> <Gold.Goldscore.Internal.Vdw.Weighted>
-1.3858

> <Gold.Goldscore.Internal.Torsion.Weighted>
-0.6481

> <Gold.Goldscore.External.Vdw.Weighted>
31.3787

> <Gold.Goldscore.Internal.HBond.Weighted>
0.0000

> <Gold.Goldscore.External.HBond.Weighted>
4.5162

> <Gold.Goldscore.Internal.Correction.Weighted>
-0.7653

> <Gold.Rescore>
     Score     S(PLP)   S(hbond)     S(cho)   S(metal)  DE(clash)   DE(tors)     intcor
     12.03     -11.52       0.97       0.00       0.00       0.98       0.70       ----

> <Gold.PLP.Fitness>
12.0284

> <Gold.PLP.PLP>
-11.5155

> <Gold.PLP.part.hbond>
-1.8433

> <Gold.PLP.part.metal>
0.0000

> <Gold.PLP.part.buried>
12.1254

> <Gold.PLP.part.nonpolar>
-29.9891

> <Gold.PLP.part.repulsive>
9.9351

> <Gold.PLP.ligand.clash>
0.9811

> <Gold.PLP.ligand.torsion>
0.7042

> <Gold.PLP.Chemscore.Hbond>
0.9675

> <Gold.PLP.Chemscore.CHOScore>
0.0000

> <Gold.PLP.Chemscore.Metal>
0.0000

> <Gold.Chemscore.Hbonds>
donor molecule, donor type, donor heavy atom, donor atom, acceptor molecule, acceptor atom, score
      L1  H     8    22       P1 26876  1.00

> <Gold.PLP.Chemscore.Internal.Correction>
   9.000000E+99

#       Name:                CT1002167954
#       Creating user name   hitesit
#       Creation time:       Sun Apr 16 22:59:49 2023


#       File generated by GOLD software.
#

@<TRIPOS>MOLECULE
CT1002167954|ligand_prepared|mol2|1|dock2
    29    30     1
SMALL
NO_CHARGES


@<TRIPOS>ATOM
      1 C1         228.6772  22.8758  12.1851 C.3            1 RES1               0.0000
      2 C2         229.5776  21.6339  12.3454 C.ar           1 RES1               0.0000
      3 C3         227.8673  22.9870  13.4735 C.2            1 RES1               0.0000
      4 C4         229.6140  24.0526  11.9356 C.2            1 RES1               0.0000
      5 C5         227.6952  22.7860  10.9939 C.3            1 RES1               0.0000
      6 C6         230.3349  21.1649  11.2761 C.ar           1 RES1               0.0000
      7 C7         229.6634  20.9496  13.5549 C.ar           1 RES1               0.0000
      8 N8         228.2101  23.9720  14.3523 N.am           1 RES1               0.0000
      9 O9         226.9673  22.1976  13.7327 O.2            1 RES1               0.0000
     10 N10        229.6755  25.0371  12.8867 N.am           1 RES1               0.0000
     11 O11        230.3117  24.1279  10.9317 O.2            1 RES1               0.0000
     12 C12        227.0609  24.1165  10.6204 C.3            1 RES1               0.0000
     13 C13        231.1506  20.0538  11.4118 C.ar           1 RES1               0.0000
     14 C14        230.4796  19.8385  13.6884 C.ar           1 RES1               0.0000
     15 C15        229.0390  25.0349  14.0980 C.2            1 RES1               0.0000
     16 C16        231.2238  19.3902  12.6180 C.ar           1 RES1               0.0000
     17 O17        229.1870  25.9310  14.9240 O.2            1 RES1               0.0000
     18 H18        228.2329  22.3940  10.1217 H              1 RES1               0.0000
     19 H19        226.8995  22.0738  11.2451 H              1 RES1               0.0000
     20 H20        230.2882  21.6727  10.3185 H              1 RES1               0.0000
     21 H21        229.0860  21.2837  14.4103 H              1 RES1               0.0000
     22 H22        227.8135  23.9127  15.2847 H              1 RES1               0.0000
     23 H23        230.2488  25.8468  12.6718 H              1 RES1               0.0000
     24 H24        226.3811  23.9972   9.7794 H              1 RES1               0.0000
     25 H25        226.4968  24.5233  11.4571 H              1 RES1               0.0000
     26 H26        227.8223  24.8416  10.3405 H              1 RES1               0.0000
     27 H27        231.7332  19.7041  10.5659 H              1 RES1               0.0000
     28 H28        230.5337  19.3189  14.6394 H              1 RES1               0.0000
     29 H29        231.8632  18.5200  12.7241 H              1 RES1               0.0000
@<TRIPOS>BOND
    1    1    2 1     
    2    1    3 1     
    3    1    4 1     
    4    1    5 1     
    5    2    6 ar    
    6    2    7 ar    
    7    3    8 1     
    8    3    9 2     
    9    4   10 1     
   10    4   11 2     
   11    5   12 1     
   12    5   18 1     
   13    5   19 1     
   14    6   13 ar    
   15    6   20 1     
   16    7   14 ar    
   17    7   21 1     
   18    8   15 1     
   19    8   22 1     
   20   10   15 1     
   21   10   23 1     
   22   12   24 1     
   23   12   25 1     
   24   12   26 1     
   25   13   16 ar    
   26   13   27 1     
   27   14   16 ar    
   28   14   28 1     
   29   15   17 2     
   30   16   29 1     
@<TRIPOS>SUBSTRUCTURE
      1 RES1           1
@<TRIPOS>SET
DONOR_HYDROGENS      STATIC     ATOMS    <user>   **** ""
2 22 23
ATOM$RED        STATIC     ATOMS    COLORGROUP SYSTEM
2 22 23
@<TRIPOS>COMMENT
> <Gold.Version>
2022.3.0

> <Gold.Id.Protein>
unknown|4v3u_clean|pdb

> <Gold.Protein.RotatedTorsions>
[  594  544  543  542 ] final  -83.47 input   59.98 | X-H torsion
[  739  695  696  697 ] final   23.27 input   98.51 | X-H torsion
[ 2556 2523 2524 2525 ] final -101.63 input  111.11 | X-H torsion
[ 2627 2595 2596 2597 ] final  101.73 input   53.40 | X-H torsion
[ 26082 26043 26042 26040 ] final    7.59 input   60.02 | X-H torsion
[ 27179 27119 27118 27114 ] final   50.52 input   60.01 | X-H torsion
[ 7426 7411 7412 7413 ] final  -29.40 input   83.97 | X-H torsion
[ 7476 7453 7454 7455 ] final  179.69 input   94.79 | X-H torsion
[ 7522 7511 7512 7513 ] final   35.87 input   85.82 | X-H torsion
[ 17193 17173 17174 17175 ] final  -57.98 input   42.33 | X-H torsion
[ 17249 17217 17218 17219 ] final  -35.19 input  107.71 | X-H torsion
[ 18293 18271 18272 18273 ] final   90.12 input   26.15 | X-H torsion
[ 18325 18311 18312 18313 ] final   43.78 input   53.27 | X-H torsion
[ 18407 18359 18360 18361 ] final -112.63 input   33.85 | X-H torsion
[ 18493 18451 18452 18453 ] final  143.29 input  113.35 | X-H torsion
[ 18561 18527 18528 18529 ] final   58.48 input   85.91 | X-H torsion
[ 18501 18462 18461 18459 ] final  -49.18 input   59.98 | X-H torsion
[ 18241 18201 18202 18203 ] final  110.83 input   44.19 | X-H torsion
[ 18297 18276 18275 18272 ] final  131.70 input   59.98 | X-H torsion
[ 10099 10092 10091 10088 ] final -158.15 input   59.98 | X-H torsion
[ 17301 17279 17280 17281 ] final -123.19 input   44.55 | X-H torsion
[ 16993 16954 16953 16951 ] final -107.50 input   59.99 | X-H torsion
[ 11475 11457 11458 11459 ] final  147.79 input   48.15 | X-H torsion
[ 11539 11523 11524 11525 ] final    9.58 input  117.79 | X-H torsion
[ 11615 11599 11600 11601 ] final  102.36 input   58.98 | X-H torsion
[ 11423 11412 11411 11408 ] final  -35.37 input   60.01 | X-H torsion
[ 27181 27121 27120 27118 ] final   13.09 input   60.02 | X-H torsion
[ 10139 10129 10130 10131 ] final  110.63 input   28.23 | X-H torsion
[ 17356 17327 17328 17329 ] final   75.15 input   73.50 | X-H torsion
[ 27201  698  697  696 ] final   46.95 input    0.00 | X-H torsion
[ 27204 2526 2525 2524 ] final -161.15 input    0.00 | X-H torsion
[ 27228 7328 7327 7326 ] final -172.66 input    0.00 | X-H torsion
[ 27233 7514 7513 7512 ] final   -8.42 input    0.00 | X-H torsion
[ 27236 17124 17123 17122 ] final  -80.38 input    0.00 | X-H torsion
[ 27240 18204 18203 18202 ] final   14.21 input    0.00 | X-H torsion
[ 27243 18274 18273 18272 ] final -108.21 input    0.00 | X-H torsion
[ 27246 18314 18313 18312 ] final   85.23 input   -0.00 | X-H torsion
[ 27249 18362 18361 18360 ] final  136.10 input    0.00 | X-H torsion
[ 27257 17176 17175 17174 ] final -139.49 input   -0.00 | X-H torsion
[ 27259 17220 17219 17218 ] final  -25.52 input   -0.00 | X-H torsion
[ 27261 17050 17049 17048 ] final  -17.54 input    0.00 | X-H torsion
[ 27270 10132 10131 10130 ] final   -3.92 input    0.00 | X-H torsion
[ 27272 11410 11409 11408 ] final -106.13 input   -0.00 | X-H torsion
[ 27279 11602 11601 11600 ] final    5.44 input    0.00 | X-H torsion
[ 27288 18684 18683 18682 ] final   37.27 input   -0.00 | X-H torsion

> <Gold.Protein.ActiveResidues>
 LYS309  TRP311  GLU314  MET341  HIS342  TRP414  ALA417  ARG419  CYS420  VAL421 
 GLY422  ARG423  LEU460  SER462  ALA463  SER482  GLN483  LEU484  ILE485  ARG486 
 ALA502  TRP566  TYR567  LEU569  PRO570  ALA571  VAL572  SER573  ASN574  MET575 
 PHE589  SER590  GLY591  TRP592  TYR593  MET594  GLU597  ILE598  ARG601  ASP602 
 ASP605  ARG608  TRP683  PHE696  HIS697  GLU699  TYR711  ASP714  HEM750  H4B760 

> <Gold.Protein.RotatedAtoms>
  219.8488    7.8611   19.2291 H   0  0  0  0  0  0  0  0  0  0  0  0  # atno 594  bound_to 544 
  221.0241    8.9881   18.9205 H   0  0  0  0  0  0  0  0  0  0  0  0  # atno 595  bound_to 544 
  220.7308    7.7755   17.8286 H   0  0  0  0  0  0  0  0  0  0  0  0  # atno 596  bound_to 544 
  228.1462    6.8163   19.9712 H   0  0  0  0  0  0  0  0  0  0  0  0  # atno 739  bound_to 695 
  225.6290   14.1062   26.2059 H   0  0  0  0  0  0  0  0  0  0  0  0  # atno 2556 bound_to 2523
  222.4320   14.2694   24.3458 H   0  0  0  0  0  0  0  0  0  0  0  0  # atno 2627 bound_to 2595
  230.6053   26.1935   22.7417 H   0  0  0  0  0  0  0  0  0  0  0  0  # atno 7426 bound_to 7411
  232.7314   26.5461   20.9151 H   0  0  0  0  0  0  0  0  0  0  0  0  # atno 7476 bound_to 7453
  232.8954   29.5654   19.8058 H   0  0  0  0  0  0  0  0  0  0  0  0  # atno 7522 bound_to 7511
  230.4859   35.1065   13.6248 H   0  0  0  0  0  0  0  0  0  0  0  0  # atno 10099 bound_to 10092
  226.7984   35.2585   10.0169 H   0  0  0  0  0  0  0  0  0  0  0  0  # atno 10139 bound_to 10129
  221.1335   18.8631    8.6043 H   0  0  0  0  0  0  0  0  0  0  0  0  # atno 11423 bound_to 11412
  221.9281   21.0167    9.2068 H   0  0  0  0  0  0  0  0  0  0  0  0  # atno 11475 bound_to 11457
  222.8995   23.9828    6.6376 H   0  0  0  0  0  0  0  0  0  0  0  0  # atno 11539 bound_to 11523
  224.1038   25.0207    4.7527 H   0  0  0  0  0  0  0  0  0  0  0  0  # atno 11615 bound_to 11599
  228.9516   20.1065    6.5160 H   0  0  0  0  0  0  0  0  0  0  0  0  # atno 16993 bound_to 16954
  227.0068   26.0680    9.2477 H   0  0  0  0  0  0  0  0  0  0  0  0  # atno 17193 bound_to 17173
  223.8329   26.7013   10.1225 H   0  0  0  0  0  0  0  0  0  0  0  0  # atno 17249 bound_to 17217
  221.4556   25.7986   11.7462 H   0  0  0  0  0  0  0  0  0  0  0  0  # atno 17301 bound_to 17279
  219.7002   23.7027   12.8557 H   0  0  0  0  0  0  0  0  0  0  0  0  # atno 17356 bound_to 17327
  221.3610   29.7431   12.4851 H   0  0  0  0  0  0  0  0  0  0  0  0  # atno 18241 bound_to 18201
  224.6187   32.0728   10.7150 H   0  0  0  0  0  0  0  0  0  0  0  0  # atno 18293 bound_to 18271
  226.7041   32.3413    7.7714 H   0  0  0  0  0  0  0  0  0  0  0  0  # atno 18297 bound_to 18276
  228.7668   30.0813   10.8028 H   0  0  0  0  0  0  0  0  0  0  0  0  # atno 18325 bound_to 18311
  231.1253   30.7353   10.4085 H   0  0  0  0  0  0  0  0  0  0  0  0  # atno 18407 bound_to 18359
  233.8359   28.0253    8.6286 H   0  0  0  0  0  0  0  0  0  0  0  0  # atno 18493 bound_to 18451
  230.8472   21.4775    7.9799 H   0  0  0  0  0  0  0  0  0  0  0  0  # atno 18501 bound_to 18462
  235.2772   25.3858   12.0279 H   0  0  0  0  0  0  0  0  0  0  0  0  # atno 18561 bound_to 18527
  224.4671   20.4223   20.3119 H   0  0  0  0  0  0  0  0  0  0  0  0  # atno 26082 bound_to 26043
  231.6618   12.4545   21.3115 H   0  0  0  0  0  0  0  0  0  0  0  0  # atno 27179 bound_to 27119
  229.0450   14.3533   23.8919 H   0  0  0  0  0  0  0  0  0  0  0  0  # atno 27181 bound_to 27121
  226.6646    7.2911   20.7616 LP  0  0  0  0  0  0  0  0  0  0  0  0  # atno 27200 bound_to 695 
  226.7886    8.6456   16.1379 LP  0  0  0  0  0  0  0  0  0  0  0  0  # atno 27201 bound_to 698 
  226.7894    6.9940   15.6162 LP  0  0  0  0  0  0  0  0  0  0  0  0  # atno 27202 bound_to 698 
  224.4537   13.0834   25.4195 LP  0  0  0  0  0  0  0  0  0  0  0  0  # atno 27203 bound_to 2523
  222.7005   17.5418   25.0301 LP  0  0  0  0  0  0  0  0  0  0  0  0  # atno 27204 bound_to 2526
  224.1694   17.4837   24.1141 LP  0  0  0  0  0  0  0  0  0  0  0  0  # atno 27205 bound_to 2526
  223.1679   15.4225   25.4372 LP  0  0  0  0  0  0  0  0  0  0  0  0  # atno 27206 bound_to 2595
  224.3690   19.2445   21.4308 LP  0  0  0  0  0  0  0  0  0  0  0  0  # atno 27210 bound_to 26043
  224.3963   20.8111   21.8907 LP  0  0  0  0  0  0  0  0  0  0  0  0  # atno 27211 bound_to 26043
  230.3806   12.5218   20.3098 LP  0  0  0  0  0  0  0  0  0  0  0  0  # atno 27214 bound_to 27119
  230.4496   11.3807   21.4760 LP  0  0  0  0  0  0  0  0  0  0  0  0  # atno 27215 bound_to 27119
  231.3599   25.0328   20.7048 LP  0  0  0  0  0  0  0  0  0  0  0  0  # atno 27228 bound_to 7328
  230.7531   23.6096   21.4835 LP  0  0  0  0  0  0  0  0  0  0  0  0  # atno 27229 bound_to 7328
  229.0352   26.6066   22.1026 LP  0  0  0  0  0  0  0  0  0  0  0  0  # atno 27230 bound_to 7411
  232.4321   27.9736   19.9515 LP  0  0  0  0  0  0  0  0  0  0  0  0  # atno 27231 bound_to 7453
  234.4414   28.9408   19.2866 LP  0  0  0  0  0  0  0  0  0  0  0  0  # atno 27232 bound_to 7511
  233.6160   33.1990   17.4842 LP  0  0  0  0  0  0  0  0  0  0  0  0  # atno 27233 bound_to 7514
  232.8027   33.9612   18.8100 LP  0  0  0  0  0  0  0  0  0  0  0  0  # atno 27234 bound_to 7514
  228.1090   28.0885   10.4282 LP  0  0  0  0  0  0  0  0  0  0  0  0  # atno 27236 bound_to 17124
  227.5883   29.0660    9.0966 LP  0  0  0  0  0  0  0  0  0  0  0  0  # atno 27237 bound_to 17124
  226.7128   26.6601    7.6316 LP  0  0  0  0  0  0  0  0  0  0  0  0  # atno 27238 bound_to 17173
  225.0488   26.4863   11.3663 LP  0  0  0  0  0  0  0  0  0  0  0  0  # atno 27239 bound_to 17217
  223.4585   28.7568   11.1486 LP  0  0  0  0  0  0  0  0  0  0  0  0  # atno 27240 bound_to 18204
  225.1773   28.9189   11.0099 LP  0  0  0  0  0  0  0  0  0  0  0  0  # atno 27241 bound_to 18204
  224.9072   31.0241   12.0776 LP  0  0  0  0  0  0  0  0  0  0  0  0  # atno 27242 bound_to 18271
  227.8279   33.6037   10.5517 LP  0  0  0  0  0  0  0  0  0  0  0  0  # atno 27243 bound_to 18274
  226.9991   33.2331   12.0267 LP  0  0  0  0  0  0  0  0  0  0  0  0  # atno 27244 bound_to 18274
  227.8860   31.5576   11.1305 LP  0  0  0  0  0  0  0  0  0  0  0  0  # atno 27245 bound_to 18311
  231.0273   32.4759    8.6296 LP  0  0  0  0  0  0  0  0  0  0  0  0  # atno 27246 bound_to 18314
  230.3745   30.8829    8.4387 LP  0  0  0  0  0  0  0  0  0  0  0  0  # atno 27247 bound_to 18314
  232.4254   31.1832   11.4895 LP  0  0  0  0  0  0  0  0  0  0  0  0  # atno 27248 bound_to 18359
  233.4638   27.8983   12.0143 LP  0  0  0  0  0  0  0  0  0  0  0  0  # atno 27249 bound_to 18362
  233.9310   29.5571   12.1883 LP  0  0  0  0  0  0  0  0  0  0  0  0  # atno 27250 bound_to 18362
  234.2443   28.8372   10.1203 LP  0  0  0  0  0  0  0  0  0  0  0  0  # atno 27251 bound_to 18451
  236.0012   26.9008   11.5439 LP  0  0  0  0  0  0  0  0  0  0  0  0  # atno 27252 bound_to 18527
  222.5696   25.3981    9.2091 LP  0  0  0  0  0  0  0  0  0  0  0  0  # atno 27257 bound_to 17176
  223.9312   25.1106    8.1779 LP  0  0  0  0  0  0  0  0  0  0  0  0  # atno 27258 bound_to 17176
  222.0649   27.8564   12.2199 LP  0  0  0  0  0  0  0  0  0  0  0  0  # atno 27259 bound_to 17220
  220.6576   27.6174   11.2390 LP  0  0  0  0  0  0  0  0  0  0  0  0  # atno 27260 bound_to 17220
  227.6109   26.4357    4.6346 LP  0  0  0  0  0  0  0  0  0  0  0  0  # atno 27261 bound_to 17050
  227.9564   25.5591    6.0879 LP  0  0  0  0  0  0  0  0  0  0  0  0  # atno 27262 bound_to 17050
  230.4351   22.4566    6.7473 LP  0  0  0  0  0  0  0  0  0  0  0  0  # atno 27263 bound_to 18462
  229.8303   22.7206    8.2411 LP  0  0  0  0  0  0  0  0  0  0  0  0  # atno 27264 bound_to 18462
  221.4611   30.0726   10.7706 LP  0  0  0  0  0  0  0  0  0  0  0  0  # atno 27265 bound_to 18201
  226.2703   32.8491    9.2557 LP  0  0  0  0  0  0  0  0  0  0  0  0  # atno 27266 bound_to 18276
  225.1395   32.2927    8.2174 LP  0  0  0  0  0  0  0  0  0  0  0  0  # atno 27267 bound_to 18276
  231.0400   36.0554   12.4247 LP  0  0  0  0  0  0  0  0  0  0  0  0  # atno 27268 bound_to 10092
  230.4532   34.5689   12.0893 LP  0  0  0  0  0  0  0  0  0  0  0  0  # atno 27269 bound_to 10092
  225.0264   33.5483   11.0010 LP  0  0  0  0  0  0  0  0  0  0  0  0  # atno 27270 bound_to 10132
  223.4888   33.2923   11.7562 LP  0  0  0  0  0  0  0  0  0  0  0  0  # atno 27271 bound_to 10132
  220.9233   23.3562   10.8291 LP  0  0  0  0  0  0  0  0  0  0  0  0  # atno 27272 bound_to 11410
  221.8684   22.1034   11.5622 LP  0  0  0  0  0  0  0  0  0  0  0  0  # atno 27273 bound_to 11410
  221.0526   24.1735   11.2565 LP  0  0  0  0  0  0  0  0  0  0  0  0  # atno 27274 bound_to 17279
  227.4294   20.0782    5.9419 LP  0  0  0  0  0  0  0  0  0  0  0  0  # atno 27275 bound_to 16954
  227.9084   21.2829    6.9348 LP  0  0  0  0  0  0  0  0  0  0  0  0  # atno 27276 bound_to 16954
  220.5380   21.7517    8.4336 LP  0  0  0  0  0  0  0  0  0  0  0  0  # atno 27277 bound_to 11457
  221.7258   24.9581    7.4861 LP  0  0  0  0  0  0  0  0  0  0  0  0  # atno 27278 bound_to 11523
  226.1386   22.9905    5.0083 LP  0  0  0  0  0  0  0  0  0  0  0  0  # atno 27279 bound_to 11602
  226.2938   21.2792    4.7903 LP  0  0  0  0  0  0  0  0  0  0  0  0  # atno 27280 bound_to 11602
  222.7401   23.9395    4.6148 LP  0  0  0  0  0  0  0  0  0  0  0  0  # atno 27283 bound_to 11599
  221.6457   17.7057    9.6275 LP  0  0  0  0  0  0  0  0  0  0  0  0  # atno 27286 bound_to 11412
  222.4331   19.1340    9.5460 LP  0  0  0  0  0  0  0  0  0  0  0  0  # atno 27287 bound_to 11412
  233.5767   18.3282   11.3435 LP  0  0  0  0  0  0  0  0  0  0  0  0  # atno 27288 bound_to 18684
  234.7838   17.6423   10.3078 LP  0  0  0  0  0  0  0  0  0  0  0  0  # atno 27289 bound_to 18684

> <Gold.Score>
     Fitness  S(hb_ext) S(vdw_ext)  S(hb_int)    S(int)      intcor
     33.54       0.62      26.54       0.00      -3.58      -0.77

> <Gold.Goldscore.Fitness>
33.5367

> <Gold.Goldscore.Internal.Vdw>
-3.6605

> <Gold.Goldscore.Internal.Torsion>
-0.6822

> <Gold.Goldscore.External.Vdw>
26.5401

> <Gold.Goldscore.Internal.HBond>
0.0000

> <Gold.Goldscore.External.HBond>
0.6216

> <Gold.Goldscore.Internal.Correction>
-0.7653

> <Gold.Goldscore.Hbonds>
donor molecule, donor type, donor heavy atom, donor atom, acceptor molecule, acceptor atom, score
      P1  M 26892 27290       L1    17  0.06

> <Gold.Goldscore.Internal.Vdw.Weighted>
-3.6605

> <Gold.Goldscore.Internal.Torsion.Weighted>
-0.6822

> <Gold.Goldscore.External.Vdw.Weighted>
36.4926

> <Gold.Goldscore.Internal.HBond.Weighted>
0.0000

> <Gold.Goldscore.External.HBond.Weighted>
0.6216

> <Gold.Goldscore.Internal.Correction.Weighted>
-0.7653

> <Gold.Rescore>
     Score     S(PLP)   S(hbond)     S(cho)   S(metal)  DE(clash)   DE(tors)     intcor
     19.01     -21.09       0.00       0.00       0.00       1.38       0.36       ----

> <Gold.PLP.Fitness>
19.0084

> <Gold.PLP.PLP>
-21.0943

> <Gold.PLP.part.hbond>
-0.7908

> <Gold.PLP.part.metal>
0.0000

> <Gold.PLP.part.buried>
6.2730

> <Gold.PLP.part.nonpolar>
-27.3424

> <Gold.PLP.part.repulsive>
0.3483

> <Gold.PLP.ligand.clash>
1.3813

> <Gold.PLP.ligand.torsion>
0.3564

> <Gold.PLP.Chemscore.Hbond>
0.0000

> <Gold.PLP.Chemscore.CHOScore>
0.0000

> <Gold.PLP.Chemscore.Metal>
0.0014

> <Gold.Chemscore.Hbonds>
donor molecule, donor type, donor heavy atom, donor atom, acceptor molecule, acceptor atom, score
      P1  M 26892 26892       L1    17  0.01

> <Gold.PLP.Chemscore.Internal.Correction>
   9.000000E+99

#       Name:                CT1002167954
#       Creating user name   hitesit
#       Creation time:       Sun Apr 16 22:59:55 2023


#       File generated by GOLD software.
#

@<TRIPOS>MOLECULE
CT1002167954|ligand_prepared|mol2|1|dock10
    29    30     1
SMALL
NO_CHARGES


@<TRIPOS>ATOM
      1 C1         227.4100  18.6676  14.0359 C.3            1 RES1               0.0000
      2 C2         227.5354  20.2040  14.0881 C.ar           1 RES1               0.0000
      3 C3         228.2578  18.2085  12.8532 C.2            1 RES1               0.0000
      4 C4         227.8962  18.1538  15.3865 C.2            1 RES1               0.0000
      5 C5         225.9624  18.1657  13.8267 C.3            1 RES1               0.0000
      6 C6         228.5830  20.8519  13.4403 C.ar           1 RES1               0.0000
      7 C7         226.6115  20.9856  14.7766 C.ar           1 RES1               0.0000
      8 N8         229.4465  17.5986  13.1269 N.am           1 RES1               0.0000
      9 O9         227.9073  18.4140  11.6977 O.2            1 RES1               0.0000
     10 N10        229.0396  17.3991  15.4126 N.am           1 RES1               0.0000
     11 O11        227.3086  18.4096  16.4304 O.2            1 RES1               0.0000
     12 C12        225.8628  16.6697  13.5728 C.3            1 RES1               0.0000
     13 C13        228.7010  22.2314  13.4769 C.ar           1 RES1               0.0000
     14 C14        226.7315  22.3651  14.8121 C.ar           1 RES1               0.0000
     15 C15        229.8537  17.1239  14.3478 C.2            1 RES1               0.0000
     16 C16        227.7752  22.9889  14.1623 C.ar           1 RES1               0.0000
     17 O17        230.8952  16.4837  14.4601 O.2            1 RES1               0.0000
     18 H18        225.3708  18.4129  14.7169 H              1 RES1               0.0000
     19 H19        225.5236  18.6984  12.9740 H              1 RES1               0.0000
     20 H20        229.3225  20.2722  12.8979 H              1 RES1               0.0000
     21 H21        225.7828  20.5164  15.2959 H              1 RES1               0.0000
     22 H22        230.0925  17.4849  12.3522 H              1 RES1               0.0000
     23 H23        229.3088  17.0058  16.3089 H              1 RES1               0.0000
     24 H24        224.8262  16.3704  13.4328 H              1 RES1               0.0000
     25 H25        226.4192  16.3922  12.6799 H              1 RES1               0.0000
     26 H26        226.2673  16.1083  14.4124 H              1 RES1               0.0000
     27 H27        229.5250  22.7174  12.9650 H              1 RES1               0.0000
     28 H28        226.0009  22.9572  15.3533 H              1 RES1               0.0000
     29 H29        227.8677  24.0695  14.1905 H              1 RES1               0.0000
@<TRIPOS>BOND
    1    1    2 1     
    2    1    3 1     
    3    1    4 1     
    4    1    5 1     
    5    2    6 ar    
    6    2    7 ar    
    7    3    8 1     
    8    3    9 2     
    9    4   10 1     
   10    4   11 2     
   11    5   12 1     
   12    5   18 1     
   13    5   19 1     
   14    6   13 ar    
   15    6   20 1     
   16    7   14 ar    
   17    7   21 1     
   18    8   15 1     
   19    8   22 1     
   20   10   15 1     
   21   10   23 1     
   22   12   24 1     
   23   12   25 1     
   24   12   26 1     
   25   13   16 ar    
   26   13   27 1     
   27   14   16 ar    
   28   14   28 1     
   29   15   17 2     
   30   16   29 1     
@<TRIPOS>SUBSTRUCTURE
      1 RES1           1
@<TRIPOS>SET
DONOR_HYDROGENS      STATIC     ATOMS    <user>   **** ""
2 22 23
ATOM$RED        STATIC     ATOMS    COLORGROUP SYSTEM
2 22 23
@<TRIPOS>COMMENT
> <Gold.Version>
2022.3.0

> <Gold.Id.Protein>
unknown|4v3u_clean|pdb

> <Gold.Protein.RotatedTorsions>
[  594  544  543  542 ] final   94.19 input   59.98 | X-H torsion
[  739  695  696  697 ] final -112.15 input   98.51 | X-H torsion
[ 2556 2523 2524 2525 ] final  -51.82 input  111.11 | X-H torsion
[ 2627 2595 2596 2597 ] final   46.47 input   53.40 | X-H torsion
[ 26082 26043 26042 26040 ] final -174.77 input   60.02 | X-H torsion
[ 27179 27119 27118 27114 ] final -142.47 input   60.01 | X-H torsion
[ 7426 7411 7412 7413 ] final  110.59 input   83.97 | X-H torsion
[ 7476 7453 7454 7455 ] final  110.19 input   94.79 | X-H torsion
[ 7522 7511 7512 7513 ] final -119.58 input   85.82 | X-H torsion
[ 17193 17173 17174 17175 ] final  -57.63 input   42.33 | X-H torsion
[ 17249 17217 17218 17219 ] final -173.04 input  107.71 | X-H torsion
[ 18293 18271 18272 18273 ] final  139.89 input   26.15 | X-H torsion
[ 18325 18311 18312 18313 ] final  179.50 input   53.27 | X-H torsion
[ 18407 18359 18360 18361 ] final -109.71 input   33.85 | X-H torsion
[ 18493 18451 18452 18453 ] final  173.61 input  113.35 | X-H torsion
[ 18561 18527 18528 18529 ] final  178.45 input   85.91 | X-H torsion
[ 18501 18462 18461 18459 ] final -156.89 input   59.98 | X-H torsion
[ 18241 18201 18202 18203 ] final   55.24 input   44.19 | X-H torsion
[ 18297 18276 18275 18272 ] final  171.25 input   59.98 | X-H torsion
[ 10099 10092 10091 10088 ] final -122.97 input   59.98 | X-H torsion
[ 17301 17279 17280 17281 ] final  -23.13 input   44.55 | X-H torsion
[ 16993 16954 16953 16951 ] final  -76.62 input   59.99 | X-H torsion
[ 11475 11457 11458 11459 ] final  -95.37 input   48.15 | X-H torsion
[ 11539 11523 11524 11525 ] final  131.72 input  117.79 | X-H torsion
[ 11615 11599 11600 11601 ] final   36.34 input   58.98 | X-H torsion
[ 11423 11412 11411 11408 ] final  118.99 input   60.01 | X-H torsion
[ 27181 27121 27120 27118 ] final  -10.18 input   60.02 | X-H torsion
[ 10139 10129 10130 10131 ] final -161.58 input   28.23 | X-H torsion
[ 17356 17327 17328 17329 ] final  101.61 input   73.50 | X-H torsion
[ 27201  698  697  696 ] final   13.99 input    0.00 | X-H torsion
[ 27204 2526 2525 2524 ] final  175.97 input    0.00 | X-H torsion
[ 27228 7328 7327 7326 ] final -152.13 input    0.00 | X-H torsion
[ 27233 7514 7513 7512 ] final  -26.87 input    0.00 | X-H torsion
[ 27236 17124 17123 17122 ] final  -56.48 input    0.00 | X-H torsion
[ 27240 18204 18203 18202 ] final -119.70 input    0.00 | X-H torsion
[ 27243 18274 18273 18272 ] final  102.51 input    0.00 | X-H torsion
[ 27246 18314 18313 18312 ] final  -47.93 input   -0.00 | X-H torsion
[ 27249 18362 18361 18360 ] final -118.28 input    0.00 | X-H torsion
[ 27257 17176 17175 17174 ] final  112.34 input   -0.00 | X-H torsion
[ 27259 17220 17219 17218 ] final   82.79 input   -0.00 | X-H torsion
[ 27261 17050 17049 17048 ] final  173.87 input    0.00 | X-H torsion
[ 27270 10132 10131 10130 ] final -160.65 input    0.00 | X-H torsion
[ 27272 11410 11409 11408 ] final  -91.90 input   -0.00 | X-H torsion
[ 27279 11602 11601 11600 ] final  170.99 input    0.00 | X-H torsion
[ 27288 18684 18683 18682 ] final   45.89 input   -0.00 | X-H torsion

> <Gold.Protein.ActiveResidues>
 LYS309  TRP311  GLU314  MET341  HIS342  TRP414  ALA417  ARG419  CYS420  VAL421 
 GLY422  ARG423  LEU460  SER462  ALA463  SER482  GLN483  LEU484  ILE485  ARG486 
 ALA502  TRP566  TYR567  LEU569  PRO570  ALA571  VAL572  SER573  ASN574  MET575 
 PHE589  SER590  GLY591  TRP592  TYR593  MET594  GLU597  ILE598  ARG601  ASP602 
 ASP605  ARG608  TRP683  PHE696  HIS697  GLU699  TYR711  ASP714  HEM750  H4B760 

> <Gold.Protein.RotatedAtoms>
  221.2274    8.5837   18.1158 H   0  0  0  0  0  0  0  0  0  0  0  0  # atno 594  bound_to 544 
  220.0665    7.4276   18.3652 H   0  0  0  0  0  0  0  0  0  0  0  0  # atno 595  bound_to 544 
  220.3112    8.6145   19.4965 H   0  0  0  0  0  0  0  0  0  0  0  0  # atno 596  bound_to 544 
  226.6102    6.6885   20.4928 H   0  0  0  0  0  0  0  0  0  0  0  0  # atno 739  bound_to 695 
  224.9341   14.1856   26.4493 H   0  0  0  0  0  0  0  0  0  0  0  0  # atno 2556 bound_to 2523
  222.4688   14.0698   25.1447 H   0  0  0  0  0  0  0  0  0  0  0  0  # atno 2627 bound_to 2595
  229.2174   27.0449   22.4646 H   0  0  0  0  0  0  0  0  0  0  0  0  # atno 7426 bound_to 7411
  232.9064   26.6181   19.9240 H   0  0  0  0  0  0  0  0  0  0  0  0  # atno 7476 bound_to 7453
  234.5475   29.1234   19.5926 H   0  0  0  0  0  0  0  0  0  0  0  0  # atno 7522 bound_to 7511
  230.3235   34.6406   13.3478 H   0  0  0  0  0  0  0  0  0  0  0  0  # atno 10099 bound_to 10092
  227.0146   36.2361   10.7193 H   0  0  0  0  0  0  0  0  0  0  0  0  # atno 10139 bound_to 10129
  222.4727   18.6583    9.8294 H   0  0  0  0  0  0  0  0  0  0  0  0  # atno 11423 bound_to 11412
  220.7384   21.9604    9.3053 H   0  0  0  0  0  0  0  0  0  0  0  0  # atno 11475 bound_to 11457
  222.5002   25.2770    7.3754 H   0  0  0  0  0  0  0  0  0  0  0  0  # atno 11539 bound_to 11523
  224.0267   24.2095    5.2589 H   0  0  0  0  0  0  0  0  0  0  0  0  # atno 11615 bound_to 11599
  228.9716   20.5152    6.8006 H   0  0  0  0  0  0  0  0  0  0  0  0  # atno 16993 bound_to 16954
  227.0041   26.0636    9.2466 H   0  0  0  0  0  0  0  0  0  0  0  0  # atno 17193 bound_to 17173
  225.0885   25.9987   10.9664 H   0  0  0  0  0  0  0  0  0  0  0  0  # atno 17249 bound_to 17217
  220.9779   24.6529   12.2667 H   0  0  0  0  0  0  0  0  0  0  0  0  # atno 17301 bound_to 17279
  219.6324   23.4829   12.5259 H   0  0  0  0  0  0  0  0  0  0  0  0  # atno 17356 bound_to 17327
  221.8583   29.2654   12.0291 H   0  0  0  0  0  0  0  0  0  0  0  0  # atno 18241 bound_to 18201
  224.3191   31.4017   10.6587 H   0  0  0  0  0  0  0  0  0  0  0  0  # atno 18293 bound_to 18271
  226.1389   32.1726    7.5393 H   0  0  0  0  0  0  0  0  0  0  0  0  # atno 18297 bound_to 18276
  227.9839   31.2247   11.6922 H   0  0  0  0  0  0  0  0  0  0  0  0  # atno 18325 bound_to 18311
  231.1218   30.6962   10.4308 H   0  0  0  0  0  0  0  0  0  0  0  0  # atno 18407 bound_to 18359
  233.4651   27.9751    8.8988 H   0  0  0  0  0  0  0  0  0  0  0  0  # atno 18493 bound_to 18451
  230.5590   22.2982    6.7434 H   0  0  0  0  0  0  0  0  0  0  0  0  # atno 18501 bound_to 18462
  235.6324   26.8425   12.3345 H   0  0  0  0  0  0  0  0  0  0  0  0  # atno 18561 bound_to 18527
  224.3524   19.9348   22.1163 H   0  0  0  0  0  0  0  0  0  0  0  0  # atno 26082 bound_to 26043
  230.0318   11.6483   20.9142 H   0  0  0  0  0  0  0  0  0  0  0  0  # atno 27179 bound_to 27119
  229.3721   14.5420   23.9023 H   0  0  0  0  0  0  0  0  0  0  0  0  # atno 27181 bound_to 27121
  228.1770    7.4169   20.2480 LP  0  0  0  0  0  0  0  0  0  0  0  0  # atno 27200 bound_to 695 
  226.3481    8.4623   16.2549 LP  0  0  0  0  0  0  0  0  0  0  0  0  # atno 27201 bound_to 698 
  227.2299    7.1773   15.4992 LP  0  0  0  0  0  0  0  0  0  0  0  0  # atno 27202 bound_to 698 
  225.1378   13.0053   25.1799 LP  0  0  0  0  0  0  0  0  0  0  0  0  # atno 27203 bound_to 2523
  222.5799   17.5189   24.7094 LP  0  0  0  0  0  0  0  0  0  0  0  0  # atno 27204 bound_to 2526
  224.2900   17.5067   24.4349 LP  0  0  0  0  0  0  0  0  0  0  0  0  # atno 27205 bound_to 2526
  223.1323   15.6159   24.6633 LP  0  0  0  0  0  0  0  0  0  0  0  0  # atno 27206 bound_to 2595
  224.4561   21.0653   20.9500 LP  0  0  0  0  0  0  0  0  0  0  0  0  # atno 27210 bound_to 26043
  224.4246   19.4811   20.5549 LP  0  0  0  0  0  0  0  0  0  0  0  0  # atno 27211 bound_to 26043
  231.4317   11.8665   21.7154 LP  0  0  0  0  0  0  0  0  0  0  0  0  # atno 27214 bound_to 27119
  231.0390   12.8474   20.4703 LP  0  0  0  0  0  0  0  0  0  0  0  0  # atno 27215 bound_to 27119
  231.5746   24.9938   20.9232 LP  0  0  0  0  0  0  0  0  0  0  0  0  # atno 27228 bound_to 7328
  230.5384   23.6486   21.2651 LP  0  0  0  0  0  0  0  0  0  0  0  0  # atno 27229 bound_to 7328
  230.4029   25.7676   22.3756 LP  0  0  0  0  0  0  0  0  0  0  0  0  # atno 27230 bound_to 7411
  232.2615   27.9034   20.9179 LP  0  0  0  0  0  0  0  0  0  0  0  0  # atno 27231 bound_to 7453
  232.8220   29.3742   19.4956 LP  0  0  0  0  0  0  0  0  0  0  0  0  # atno 27232 bound_to 7511
  233.8345   33.3163   17.6090 LP  0  0  0  0  0  0  0  0  0  0  0  0  # atno 27233 bound_to 7514
  232.5842   33.8438   18.6852 LP  0  0  0  0  0  0  0  0  0  0  0  0  # atno 27234 bound_to 7514
  228.4184   28.1550   10.2596 LP  0  0  0  0  0  0  0  0  0  0  0  0  # atno 27236 bound_to 17124
  227.2790   28.9994    9.2652 LP  0  0  0  0  0  0  0  0  0  0  0  0  # atno 27237 bound_to 17124
  226.7155   26.6644    7.6326 LP  0  0  0  0  0  0  0  0  0  0  0  0  # atno 27238 bound_to 17173
  223.8429   27.1611   10.5558 LP  0  0  0  0  0  0  0  0  0  0  0  0  # atno 27239 bound_to 17217
  224.9736   28.7856   11.6426 LP  0  0  0  0  0  0  0  0  0  0  0  0  # atno 27240 bound_to 18204
  223.6622   28.8901   10.5159 LP  0  0  0  0  0  0  0  0  0  0  0  0  # atno 27241 bound_to 18204
  225.2038   31.6887   12.1334 LP  0  0  0  0  0  0  0  0  0  0  0  0  # atno 27242 bound_to 18271
  227.4430   33.2592   12.1400 LP  0  0  0  0  0  0  0  0  0  0  0  0  # atno 27243 bound_to 18274
  227.3840   33.5777   10.4385 LP  0  0  0  0  0  0  0  0  0  0  0  0  # atno 27244 bound_to 18274
  228.6445   30.4499   10.2689 LP  0  0  0  0  0  0  0  0  0  0  0  0  # atno 27245 bound_to 18311
  229.9034   31.3521    8.6173 LP  0  0  0  0  0  0  0  0  0  0  0  0  # atno 27246 bound_to 18314
  231.4983   32.0067    8.4509 LP  0  0  0  0  0  0  0  0  0  0  0  0  # atno 27247 bound_to 18314
  232.4288   31.2212   11.4678 LP  0  0  0  0  0  0  0  0  0  0  0  0  # atno 27248 bound_to 18359
  234.5634   28.7273   12.1005 LP  0  0  0  0  0  0  0  0  0  0  0  0  # atno 27249 bound_to 18362
  232.8314   28.7281   12.1020 LP  0  0  0  0  0  0  0  0  0  0  0  0  # atno 27250 bound_to 18362
  234.6075   28.8864    9.8556 LP  0  0  0  0  0  0  0  0  0  0  0  0  # atno 27251 bound_to 18451
  235.6540   25.4770   11.2442 LP  0  0  0  0  0  0  0  0  0  0  0  0  # atno 27252 bound_to 18527
  223.6758   24.5626    8.9945 LP  0  0  0  0  0  0  0  0  0  0  0  0  # atno 27257 bound_to 17176
  222.8250   25.9460    8.3925 LP  0  0  0  0  0  0  0  0  0  0  0  0  # atno 27258 bound_to 17176
  221.5874   27.8389   10.8997 LP  0  0  0  0  0  0  0  0  0  0  0  0  # atno 27259 bound_to 17220
  221.1351   27.6349   12.5592 LP  0  0  0  0  0  0  0  0  0  0  0  0  # atno 27260 bound_to 17220
  227.8287   25.6533    6.1547 LP  0  0  0  0  0  0  0  0  0  0  0  0  # atno 27261 bound_to 17050
  227.7386   26.3415    4.5678 LP  0  0  0  0  0  0  0  0  0  0  0  0  # atno 27262 bound_to 17050
  229.7919   22.8301    8.0761 LP  0  0  0  0  0  0  0  0  0  0  0  0  # atno 27263 bound_to 18462
  230.7638   21.5204    8.1579 LP  0  0  0  0  0  0  0  0  0  0  0  0  # atno 27264 bound_to 18462
  220.9772   30.5373   11.2141 LP  0  0  0  0  0  0  0  0  0  0  0  0  # atno 27265 bound_to 18201
  226.7941   32.7864    8.8970 LP  0  0  0  0  0  0  0  0  0  0  0  0  # atno 27266 bound_to 18276
  225.1845   32.5251    8.8098 LP  0  0  0  0  0  0  0  0  0  0  0  0  # atno 27267 bound_to 18276
  230.9817   36.0853   12.9908 LP  0  0  0  0  0  0  0  0  0  0  0  0  # atno 27268 bound_to 10092
  230.6751   35.0083   11.8022 LP  0  0  0  0  0  0  0  0  0  0  0  0  # atno 27269 bound_to 10092
  223.4139   33.2293   11.4209 LP  0  0  0  0  0  0  0  0  0  0  0  0  # atno 27270 bound_to 10132
  225.1012   33.6113   11.3363 LP  0  0  0  0  0  0  0  0  0  0  0  0  # atno 27271 bound_to 10132
  220.7663   23.2703   10.9475 LP  0  0  0  0  0  0  0  0  0  0  0  0  # atno 27272 bound_to 11410
  222.0254   22.1893   11.4437 LP  0  0  0  0  0  0  0  0  0  0  0  0  # atno 27273 bound_to 11410
  221.5239   25.3037   10.7430 LP  0  0  0  0  0  0  0  0  0  0  0  0  # atno 27274 bound_to 17279
  227.8349   19.7865    5.8925 LP  0  0  0  0  0  0  0  0  0  0  0  0  # atno 27275 bound_to 16954
  227.4826   21.1630    6.6975 LP  0  0  0  0  0  0  0  0  0  0  0  0  # atno 27276 bound_to 16954
  221.6822   20.8441    8.3389 LP  0  0  0  0  0  0  0  0  0  0  0  0  # atno 27277 bound_to 11457
  222.1178   23.6876    6.7619 LP  0  0  0  0  0  0  0  0  0  0  0  0  # atno 27278 bound_to 11523
  226.1455   21.2732    4.9497 LP  0  0  0  0  0  0  0  0  0  0  0  0  # atno 27279 bound_to 11602
  226.2869   22.9965    4.8488 LP  0  0  0  0  0  0  0  0  0  0  0  0  # atno 27280 bound_to 11602
  222.8159   24.7369    4.1172 LP  0  0  0  0  0  0  0  0  0  0  0  0  # atno 27283 bound_to 11599
  221.4935   19.2777    8.6864 LP  0  0  0  0  0  0  0  0  0  0  0  0  # atno 27286 bound_to 11412
  221.2375   17.7681    9.2541 LP  0  0  0  0  0  0  0  0  0  0  0  0  # atno 27287 bound_to 11412
  233.5185   18.3669   11.2336 LP  0  0  0  0  0  0  0  0  0  0  0  0  # atno 27288 bound_to 18684
  234.8419   17.6036   10.4177 LP  0  0  0  0  0  0  0  0  0  0  0  0  # atno 27289 bound_to 18684

> <Gold.Score>
     Fitness  S(hb_ext) S(vdw_ext)  S(hb_int)    S(int)      intcor
     29.85       7.16      17.42       0.00      -1.27      -0.77

> <Gold.Goldscore.Fitness>
29.8458

> <Gold.Goldscore.Internal.Vdw>
-1.5557

> <Gold.Goldscore.Internal.Torsion>
-0.4830

> <Gold.Goldscore.External.Vdw>
17.4230

> <Gold.Goldscore.Internal.HBond>
0.0000

> <Gold.Goldscore.External.HBond>
7.1627

> <Gold.Goldscore.Internal.Correction>
-0.7653

> <Gold.Goldscore.Hbonds>
donor molecule, donor type, donor heavy atom, donor atom, acceptor molecule, acceptor atom, score
      L1  H     8    22       P1 19009  0.19
      L1  H    10    23       P1 27112  1.00

> <Gold.Goldscore.Internal.Vdw.Weighted>
-1.5557

> <Gold.Goldscore.Internal.Torsion.Weighted>
-0.4830

> <Gold.Goldscore.External.Vdw.Weighted>
23.9566

> <Gold.Goldscore.Internal.HBond.Weighted>
0.0000

> <Gold.Goldscore.External.HBond.Weighted>
7.1627

> <Gold.Goldscore.Internal.Correction.Weighted>
-0.7653

> <Gold.Rescore>
     Score     S(PLP)   S(hbond)     S(cho)   S(metal)  DE(clash)   DE(tors)     intcor
     23.86     -20.11       1.98       0.00       0.00       1.80       0.19       ----

> <Gold.PLP.Fitness>
23.8623

> <Gold.PLP.PLP>
-20.1076

> <Gold.PLP.part.hbond>
-3.3809

> <Gold.PLP.part.metal>
0.0000

> <Gold.PLP.part.buried>
-4.2719

> <Gold.PLP.part.nonpolar>
-14.7843

> <Gold.PLP.part.repulsive>
2.5257

> <Gold.PLP.ligand.clash>
1.7985

> <Gold.PLP.ligand.torsion>
0.1874

> <Gold.PLP.Chemscore.Hbond>
1.9760

> <Gold.PLP.Chemscore.CHOScore>
0.0000

> <Gold.PLP.Chemscore.Metal>
0.0000

> <Gold.Chemscore.Hbonds>
donor molecule, donor type, donor heavy atom, donor atom, acceptor molecule, acceptor atom, score
      L1  H    10    23       P1 27112  0.78

> <Gold.PLP.Chemscore.Internal.Correction>
   9.000000E+99

