#       Name:                GA Fitting Points
#       Creating user name   hitesit
#       Creation time:       Sun Apr 16 22:59:43 2023


#       Fitting Points Used by GA Software.
#

@<TRIPOS>MOLECULE
GA Fitting Points
 14430    0    0
SMALL
NO_CHARGES


@<TRIPOS>ATOM
      1 ****       216.0000  15.7500  19.7500 Du        
      2 ****       216.0000  15.7500  20.2500 Du        
      3 ****       216.0000  15.7500  20.5000 Du        
      4 ****       216.0000  16.0000  19.7500 Du        
      5 ****       216.0000  16.0000  20.0000 Du        
      6 ****       216.0000  16.0000  20.2500 Du        
      7 ****       216.0000  16.0000  20.5000 Du        
      8 ****       216.0000  16.0000  20.7500 Du        
      9 ****       216.0000  16.0000  21.0000 Du        
     10 ****       216.0000  16.0000  21.2500 Du        
     11 ****       216.0000  16.0000  21.5000 Du        
     12 ****       216.0000  16.2500  19.7500 Du        
     13 ****       216.0000  16.2500  20.0000 Du        
     14 ****       216.0000  16.2500  20.2500 Du        
     15 ****       216.0000  16.2500  20.5000 Du        
     16 ****       216.0000  16.2500  20.7500 Du        
     17 ****       216.0000  16.2500  21.0000 Du        
     18 ****       216.0000  16.2500  21.2500 Du        
     19 ****       216.0000  16.2500  21.5000 Du        
     20 ****       216.0000  16.2500  21.7500 Du        
     21 ****       216.0000  16.2500  22.0000 Du        
     22 ****       216.0000  16.5000  19.7500 Du        
     23 ****       216.0000  16.5000  20.0000 Du        
     24 ****       216.0000  16.5000  20.2500 Du        
     25 ****       216.0000  16.5000  20.5000 Du        
     26 ****       216.0000  16.5000  20.7500 Du        
     27 ****       216.0000  16.5000  21.0000 Du        
     28 ****       216.0000  16.5000  21.2500 Du        
     29 ****       216.0000  16.5000  21.5000 Du        
     30 ****       216.0000  16.5000  21.7500 Du        
     31 ****       216.0000  16.5000  22.0000 Du        
     32 ****       216.0000  16.5000  22.2500 Du        
     33 ****       216.0000  16.7500  19.7500 Du        
     34 ****       216.0000  16.7500  20.0000 Du        
     35 ****       216.0000  16.7500  20.2500 Du        
     36 ****       216.0000  16.7500  20.5000 Du        
     37 ****       216.0000  16.7500  20.7500 Du        
     38 ****       216.0000  16.7500  21.0000 Du        
     39 ****       216.0000  16.7500  21.2500 Du        
     40 ****       216.0000  16.7500  21.5000 Du        
     41 ****       216.0000  16.7500  21.7500 Du        
     42 ****       216.0000  16.7500  22.0000 Du        
     43 ****       216.0000  16.7500  22.2500 Du        
     44 ****       216.0000  16.7500  22.5000 Du        
     45 ****       216.0000  17.0000  20.0000 Du        
     46 ****       216.0000  17.0000  20.2500 Du        
     47 ****       216.0000  17.0000  20.5000 Du        
     48 ****       216.0000  17.0000  20.7500 Du        
     49 ****       216.0000  17.0000  21.0000 Du        
     50 ****       216.0000  17.0000  21.2500 Du        
     51 ****       216.0000  17.0000  21.5000 Du        
     52 ****       216.0000  17.0000  21.7500 Du        
     53 ****       216.0000  17.0000  22.0000 Du        
     54 ****       216.0000  17.0000  22.2500 Du        
     55 ****       216.0000  17.0000  22.5000 Du        
     56 ****       216.0000  17.0000  22.7500 Du        
     57 ****       216.0000  17.2500  20.2500 Du        
     58 ****       216.0000  17.2500  20.5000 Du        
     59 ****       216.0000  17.2500  20.7500 Du        
     60 ****       216.0000  17.2500  21.0000 Du        
     61 ****       216.0000  17.2500  21.2500 Du        
     62 ****       216.0000  17.2500  21.5000 Du        
     63 ****       216.0000  17.2500  21.7500 Du        
     64 ****       216.0000  17.2500  22.0000 Du        
     65 ****       216.0000  17.2500  22.2500 Du        
     66 ****       216.0000  17.2500  22.5000 Du        
     67 ****       216.0000  17.2500  22.7500 Du        
     68 ****       216.0000  17.2500  23.0000 Du        
     69 ****       216.0000  17.5000  20.5000 Du        
     70 ****       216.0000  17.5000  20.7500 Du        
     71 ****       216.0000  17.5000  21.0000 Du        
     72 ****       216.0000  17.5000  21.2500 Du        
     73 ****       216.0000  17.5000  21.5000 Du        
     74 ****       216.0000  17.5000  21.7500 Du        
     75 ****       216.0000  17.5000  22.0000 Du        
     76 ****       216.0000  17.5000  22.2500 Du        
     77 ****       216.0000  17.5000  22.5000 Du        
     78 ****       216.0000  17.5000  22.7500 Du        
     79 ****       216.0000  17.5000  23.0000 Du        
     80 ****       216.0000  17.5000  23.2500 Du        
     81 ****       216.0000  17.7500  20.7500 Du        
     82 ****       216.0000  17.7500  21.0000 Du        
     83 ****       216.0000  17.7500  21.2500 Du        
     84 ****       216.0000  17.7500  21.5000 Du        
     85 ****       216.0000  17.7500  21.7500 Du        
     86 ****       216.0000  17.7500  22.0000 Du        
     87 ****       216.0000  17.7500  22.2500 Du        
     88 ****       216.0000  17.7500  22.5000 Du        
     89 ****       216.0000  17.7500  22.7500 Du        
     90 ****       216.0000  17.7500  23.0000 Du        
     91 ****       216.0000  17.7500  23.2500 Du        
     92 ****       216.0000  18.0000  21.7500 Du        
     93 ****       216.0000  18.0000  22.0000 Du        
     94 ****       216.0000  18.0000  22.2500 Du        
     95 ****       216.0000  18.0000  22.5000 Du        
     96 ****       216.0000  18.0000  22.7500 Du        
     97 ****       216.0000  18.0000  23.0000 Du        
     98 ****       216.0000  18.0000  23.2500 Du        
     99 ****       216.0000  18.2500  23.0000 Du        
    100 ****       216.0000  20.2500  25.2500 Du        
    101 ****       216.0000  20.5000  24.7500 Du        
    102 ****       216.0000  20.5000  25.0000 Du        
    103 ****       216.0000  20.5000  25.2500 Du        
    104 ****       216.2500  15.7500  19.0000 Du        
    105 ****       216.2500  15.7500  19.2500 Du        
    106 ****       216.2500  15.7500  19.5000 Du        
    107 ****       216.2500  15.7500  19.7500 Du        
    108 ****       216.2500  15.7500  20.0000 Du        
    109 ****       216.2500  15.7500  20.2500 Du        
    110 ****       216.2500  15.7500  20.5000 Du        
    111 ****       216.2500  15.7500  20.7500 Du        
    112 ****       216.2500  16.0000  19.0000 Du        
    113 ****       216.2500  16.0000  19.2500 Du        
    114 ****       216.2500  16.0000  19.5000 Du        
    115 ****       216.2500  16.0000  19.7500 Du        
    116 ****       216.2500  16.0000  20.0000 Du        
    117 ****       216.2500  16.0000  20.2500 Du        
    118 ****       216.2500  16.0000  20.5000 Du        
    119 ****       216.2500  16.0000  20.7500 Du        
    120 ****       216.2500  16.0000  21.0000 Du        
    121 ****       216.2500  16.0000  21.2500 Du        
    122 ****       216.2500  16.0000  21.5000 Du        
    123 ****       216.2500  16.0000  21.7500 Du        
    124 ****       216.2500  16.0000  22.0000 Du        
    125 ****       216.2500  16.2500  19.2500 Du        
    126 ****       216.2500  16.2500  19.5000 Du        
    127 ****       216.2500  16.2500  19.7500 Du        
    128 ****       216.2500  16.2500  20.0000 Du        
    129 ****       216.2500  16.2500  20.2500 Du        
    130 ****       216.2500  16.2500  20.5000 Du        
    131 ****       216.2500  16.2500  20.7500 Du        
    132 ****       216.2500  16.2500  21.0000 Du        
    133 ****       216.2500  16.2500  21.2500 Du        
    134 ****       216.2500  16.2500  21.5000 Du        
    135 ****       216.2500  16.2500  21.7500 Du        
    136 ****       216.2500  16.2500  22.0000 Du        
    137 ****       216.2500  16.5000  19.2500 Du        
    138 ****       216.2500  16.5000  19.5000 Du        
    139 ****       216.2500  16.5000  19.7500 Du        
    140 ****       216.2500  16.5000  20.0000 Du        
    141 ****       216.2500  16.5000  20.2500 Du        
    142 ****       216.2500  16.5000  20.5000 Du        
    143 ****       216.2500  16.5000  20.7500 Du        
    144 ****       216.2500  16.5000  21.0000 Du        
    145 ****       216.2500  16.5000  21.2500 Du        
    146 ****       216.2500  16.5000  21.5000 Du        
    147 ****       216.2500  16.5000  21.7500 Du        
    148 ****       216.2500  16.5000  22.0000 Du        
    149 ****       216.2500  16.5000  22.2500 Du        
    150 ****       216.2500  16.7500  19.5000 Du        
    151 ****       216.2500  16.7500  19.7500 Du        
    152 ****       216.2500  16.7500  20.0000 Du        
    153 ****       216.2500  16.7500  20.2500 Du        
    154 ****       216.2500  16.7500  20.5000 Du        
    155 ****       216.2500  16.7500  20.7500 Du        
    156 ****       216.2500  16.7500  21.0000 Du        
    157 ****       216.2500  16.7500  21.2500 Du        
    158 ****       216.2500  16.7500  21.5000 Du        
    159 ****       216.2500  16.7500  21.7500 Du        
    160 ****       216.2500  16.7500  22.0000 Du        
    161 ****       216.2500  16.7500  22.2500 Du        
    162 ****       216.2500  16.7500  22.5000 Du        
    163 ****       216.2500  17.0000  19.7500 Du        
    164 ****       216.2500  17.0000  20.0000 Du        
    165 ****       216.2500  17.0000  20.2500 Du        
    166 ****       216.2500  17.0000  20.5000 Du        
    167 ****       216.2500  17.0000  20.7500 Du        
    168 ****       216.2500  17.0000  21.0000 Du        
    169 ****       216.2500  17.0000  21.2500 Du        
    170 ****       216.2500  17.0000  21.5000 Du        
    171 ****       216.2500  17.0000  21.7500 Du        
    172 ****       216.2500  17.0000  22.0000 Du        
    173 ****       216.2500  17.0000  22.2500 Du        
    174 ****       216.2500  17.0000  22.5000 Du        
    175 ****       216.2500  17.0000  22.7500 Du        
    176 ****       216.2500  17.2500  20.0000 Du        
    177 ****       216.2500  17.2500  20.2500 Du        
    178 ****       216.2500  17.2500  20.5000 Du        
    179 ****       216.2500  17.2500  20.7500 Du        
    180 ****       216.2500  17.2500  21.0000 Du        
    181 ****       216.2500  17.2500  21.2500 Du        
    182 ****       216.2500  17.2500  21.5000 Du        
    183 ****       216.2500  17.2500  21.7500 Du        
    184 ****       216.2500  17.2500  22.0000 Du        
    185 ****       216.2500  17.2500  22.2500 Du        
    186 ****       216.2500  17.2500  22.5000 Du        
    187 ****       216.2500  17.2500  22.7500 Du        
    188 ****       216.2500  17.2500  23.0000 Du        
    189 ****       216.2500  17.5000  20.5000 Du        
    190 ****       216.2500  17.5000  20.7500 Du        
    191 ****       216.2500  17.5000  21.0000 Du        
    192 ****       216.2500  17.5000  21.2500 Du        
    193 ****       216.2500  17.5000  21.5000 Du        
    194 ****       216.2500  17.5000  21.7500 Du        
    195 ****       216.2500  17.5000  22.0000 Du        
    196 ****       216.2500  17.5000  22.2500 Du        
    197 ****       216.2500  17.5000  22.5000 Du        
    198 ****       216.2500  17.5000  22.7500 Du        
    199 ****       216.2500  17.5000  23.0000 Du        
    200 ****       216.2500  17.5000  23.2500 Du        
    201 ****       216.2500  17.7500  21.7500 Du        
    202 ****       216.2500  17.7500  22.0000 Du        
    203 ****       216.2500  17.7500  22.2500 Du        
    204 ****       216.2500  17.7500  22.5000 Du        
    205 ****       216.2500  17.7500  22.7500 Du        
    206 ****       216.2500  17.7500  23.0000 Du        
    207 ****       216.2500  17.7500  23.2500 Du        
    208 ****       216.2500  18.0000  22.7500 Du        
    209 ****       216.2500  18.0000  23.0000 Du        
    210 ****       216.2500  18.0000  23.2500 Du        
    211 ****       216.2500  18.2500  25.7500 Du        
    212 ****       216.2500  19.0000  11.5000 Du        
    213 ****       216.2500  19.2500  25.7500 Du        
    214 ****       216.2500  19.7500  25.7500 Du        
    215 ****       216.2500  20.0000  24.7500 Du        
    216 ****       216.2500  20.0000  25.0000 Du        
    217 ****       216.2500  20.2500  24.7500 Du        
    218 ****       216.2500  20.2500  25.0000 Du        
    219 ****       216.2500  20.2500  25.2500 Du        
    220 ****       216.2500  20.2500  25.7500 Du        
    221 ****       216.2500  20.5000  24.7500 Du        
    222 ****       216.2500  20.5000  25.0000 Du        
    223 ****       216.2500  20.5000  25.2500 Du        
    224 ****       216.2500  20.5000  25.5000 Du        
    225 ****       216.2500  20.5000  25.7500 Du        
    226 ****       216.2500  20.7500  24.7500 Du        
    227 ****       216.2500  20.7500  25.0000 Du        
    228 ****       216.2500  20.7500  25.2500 Du        
    229 ****       216.2500  20.7500  25.5000 Du        
    230 ****       216.2500  20.7500  25.7500 Du        
    231 ****       216.2500  21.0000  24.7500 Du        
    232 ****       216.2500  21.0000  25.0000 Du        
    233 ****       216.2500  21.0000  25.2500 Du        
    234 ****       216.2500  21.0000  25.5000 Du        
    235 ****       216.2500  21.0000  25.7500 Du        
    236 ****       216.2500  21.2500  24.7500 Du        
    237 ****       216.2500  21.2500  25.0000 Du        
    238 ****       216.2500  21.2500  25.2500 Du        
    239 ****       216.2500  21.2500  25.5000 Du        
    240 ****       216.2500  21.2500  25.7500 Du        
    241 ****       216.2500  21.5000  24.7500 Du        
    242 ****       216.2500  21.5000  25.0000 Du        
    243 ****       216.2500  21.5000  25.2500 Du        
    244 ****       216.2500  21.5000  25.5000 Du        
    245 ****       216.2500  21.5000  25.7500 Du        
    246 ****       216.5000  15.5000  19.0000 Du        
    247 ****       216.5000  15.5000  19.2500 Du        
    248 ****       216.5000  15.7500  18.5000 Du        
    249 ****       216.5000  15.7500  18.7500 Du        
    250 ****       216.5000  15.7500  19.0000 Du        
    251 ****       216.5000  15.7500  19.2500 Du        
    252 ****       216.5000  15.7500  19.5000 Du        
    253 ****       216.5000  15.7500  19.7500 Du        
    254 ****       216.5000  15.7500  20.0000 Du        
    255 ****       216.5000  15.7500  20.2500 Du        
    256 ****       216.5000  16.0000  18.2500 Du        
    257 ****       216.5000  16.0000  18.5000 Du        
    258 ****       216.5000  16.0000  18.7500 Du        
    259 ****       216.5000  16.0000  19.0000 Du        
    260 ****       216.5000  16.0000  19.2500 Du        
    261 ****       216.5000  16.0000  19.5000 Du        
    262 ****       216.5000  16.0000  19.7500 Du        
    263 ****       216.5000  16.0000  20.0000 Du        
    264 ****       216.5000  16.0000  20.2500 Du        
    265 ****       216.5000  16.0000  20.5000 Du        
    266 ****       216.5000  16.0000  20.7500 Du        
    267 ****       216.5000  16.0000  21.0000 Du        
    268 ****       216.5000  16.0000  21.2500 Du        
    269 ****       216.5000  16.2500  18.5000 Du        
    270 ****       216.5000  16.2500  18.7500 Du        
    271 ****       216.5000  16.2500  19.0000 Du        
    272 ****       216.5000  16.2500  19.2500 Du        
    273 ****       216.5000  16.2500  19.5000 Du        
    274 ****       216.5000  16.2500  19.7500 Du        
    275 ****       216.5000  16.2500  20.0000 Du        
    276 ****       216.5000  16.2500  20.2500 Du        
    277 ****       216.5000  16.2500  20.5000 Du        
    278 ****       216.5000  16.2500  20.7500 Du        
    279 ****       216.5000  16.2500  21.0000 Du        
    280 ****       216.5000  16.2500  21.2500 Du        
    281 ****       216.5000  16.2500  21.5000 Du        
    282 ****       216.5000  16.2500  21.7500 Du        
    283 ****       216.5000  16.2500  22.0000 Du        
    284 ****       216.5000  16.5000  18.7500 Du        
    285 ****       216.5000  16.5000  19.0000 Du        
    286 ****       216.5000  16.5000  19.2500 Du        
    287 ****       216.5000  16.5000  19.5000 Du        
    288 ****       216.5000  16.5000  19.7500 Du        
    289 ****       216.5000  16.5000  20.0000 Du        
    290 ****       216.5000  16.5000  20.2500 Du        
    291 ****       216.5000  16.5000  20.5000 Du        
    292 ****       216.5000  16.5000  20.7500 Du        
    293 ****       216.5000  16.5000  21.0000 Du        
    294 ****       216.5000  16.5000  21.2500 Du        
    295 ****       216.5000  16.5000  21.5000 Du        
    296 ****       216.5000  16.5000  21.7500 Du        
    297 ****       216.5000  16.5000  22.0000 Du        
    298 ****       216.5000  16.5000  22.2500 Du        
    299 ****       216.5000  16.7500  19.0000 Du        
    300 ****       216.5000  16.7500  19.2500 Du        
    301 ****       216.5000  16.7500  19.5000 Du        
    302 ****       216.5000  16.7500  19.7500 Du        
    303 ****       216.5000  16.7500  20.0000 Du        
    304 ****       216.5000  16.7500  20.2500 Du        
    305 ****       216.5000  16.7500  20.5000 Du        
    306 ****       216.5000  16.7500  20.7500 Du        
    307 ****       216.5000  16.7500  21.0000 Du        
    308 ****       216.5000  16.7500  21.2500 Du        
    309 ****       216.5000  16.7500  21.5000 Du        
    310 ****       216.5000  16.7500  21.7500 Du        
    311 ****       216.5000  16.7500  22.0000 Du        
    312 ****       216.5000  16.7500  22.2500 Du        
    313 ****       216.5000  17.0000  19.2500 Du        
    314 ****       216.5000  17.0000  19.5000 Du        
    315 ****       216.5000  17.0000  19.7500 Du        
    316 ****       216.5000  17.0000  20.0000 Du        
    317 ****       216.5000  17.0000  20.2500 Du        
    318 ****       216.5000  17.0000  20.5000 Du        
    319 ****       216.5000  17.0000  20.7500 Du        
    320 ****       216.5000  17.0000  21.0000 Du        
    321 ****       216.5000  17.0000  21.2500 Du        
    322 ****       216.5000  17.0000  21.5000 Du        
    323 ****       216.5000  17.0000  21.7500 Du        
    324 ****       216.5000  17.0000  22.0000 Du        
    325 ****       216.5000  17.0000  22.2500 Du        
    326 ****       216.5000  17.0000  22.5000 Du        
    327 ****       216.5000  17.0000  22.7500 Du        
    328 ****       216.5000  17.2500  20.0000 Du        
    329 ****       216.5000  17.2500  20.2500 Du        
    330 ****       216.5000  17.2500  20.5000 Du        
    331 ****       216.5000  17.2500  20.7500 Du        
    332 ****       216.5000  17.2500  21.0000 Du        
    333 ****       216.5000  17.2500  21.2500 Du        
    334 ****       216.5000  17.2500  21.5000 Du        
    335 ****       216.5000  17.2500  21.7500 Du        
    336 ****       216.5000  17.2500  22.0000 Du        
    337 ****       216.5000  17.2500  22.2500 Du        
    338 ****       216.5000  17.2500  22.5000 Du        
    339 ****       216.5000  17.2500  22.7500 Du        
    340 ****       216.5000  17.2500  23.0000 Du        
    341 ****       216.5000  17.5000  21.2500 Du        
    342 ****       216.5000  17.5000  21.5000 Du        
    343 ****       216.5000  17.5000  21.7500 Du        
    344 ****       216.5000  17.5000  22.0000 Du        
    345 ****       216.5000  17.5000  22.2500 Du        
    346 ****       216.5000  17.5000  22.5000 Du        
    347 ****       216.5000  17.5000  22.7500 Du        
    348 ****       216.5000  17.5000  23.0000 Du        
    349 ****       216.5000  17.5000  23.2500 Du        
    350 ****       216.5000  17.7500  23.0000 Du        
    351 ****       216.5000  17.7500  23.2500 Du        
    352 ****       216.5000  18.2500  25.5000 Du        
    353 ****       216.5000  18.2500  25.7500 Du        
    354 ****       216.5000  18.5000  25.2500 Du        
    355 ****       216.5000  18.5000  25.5000 Du        
    356 ****       216.5000  18.5000  25.7500 Du        
    357 ****       216.5000  18.7500  25.2500 Du        
    358 ****       216.5000  18.7500  25.5000 Du        
    359 ****       216.5000  18.7500  25.7500 Du        
    360 ****       216.5000  19.0000  11.5000 Du        
    361 ****       216.5000  19.0000  25.0000 Du        
    362 ****       216.5000  19.0000  25.2500 Du        
    363 ****       216.5000  19.0000  25.5000 Du        
    364 ****       216.5000  19.0000  25.7500 Du        
    365 ****       216.5000  19.2500  25.0000 Du        
    366 ****       216.5000  19.2500  25.2500 Du        
    367 ****       216.5000  19.2500  25.5000 Du        
    368 ****       216.5000  19.2500  25.7500 Du        
    369 ****       216.5000  19.5000  24.7500 Du        
    370 ****       216.5000  19.5000  25.0000 Du        
    371 ****       216.5000  19.5000  25.2500 Du        
    372 ****       216.5000  19.5000  25.5000 Du        
    373 ****       216.5000  19.5000  25.7500 Du        
    374 ****       216.5000  19.7500  24.7500 Du        
    375 ****       216.5000  19.7500  25.0000 Du        
    376 ****       216.5000  19.7500  25.2500 Du        
    377 ****       216.5000  19.7500  25.5000 Du        
    378 ****       216.5000  19.7500  25.7500 Du        
    379 ****       216.5000  20.0000  24.7500 Du        
    380 ****       216.5000  20.0000  25.0000 Du        
    381 ****       216.5000  20.0000  25.2500 Du        
    382 ****       216.5000  20.0000  25.5000 Du        
    383 ****       216.5000  20.0000  25.7500 Du        
    384 ****       216.5000  20.2500  24.7500 Du        
    385 ****       216.5000  20.2500  25.0000 Du        
    386 ****       216.5000  20.2500  25.2500 Du        
    387 ****       216.5000  20.2500  25.5000 Du        
    388 ****       216.5000  20.2500  25.7500 Du        
    389 ****       216.5000  20.5000  24.7500 Du        
    390 ****       216.5000  20.5000  25.0000 Du        
    391 ****       216.5000  20.5000  25.2500 Du        
    392 ****       216.5000  20.5000  25.5000 Du        
    393 ****       216.5000  20.5000  25.7500 Du        
    394 ****       216.5000  20.7500  24.7500 Du        
    395 ****       216.5000  20.7500  25.0000 Du        
    396 ****       216.5000  20.7500  25.2500 Du        
    397 ****       216.5000  20.7500  25.5000 Du        
    398 ****       216.5000  20.7500  25.7500 Du        
    399 ****       216.5000  21.0000  24.7500 Du        
    400 ****       216.5000  21.0000  25.0000 Du        
    401 ****       216.5000  21.0000  25.2500 Du        
    402 ****       216.5000  21.0000  25.5000 Du        
    403 ****       216.5000  21.0000  25.7500 Du        
    404 ****       216.5000  21.2500  24.7500 Du        
    405 ****       216.5000  21.2500  25.0000 Du        
    406 ****       216.5000  21.2500  25.2500 Du        
    407 ****       216.5000  21.2500  25.5000 Du        
    408 ****       216.5000  21.2500  25.7500 Du        
    409 ****       216.5000  21.5000  25.0000 Du        
    410 ****       216.5000  21.5000  25.2500 Du        
    411 ****       216.5000  21.5000  25.5000 Du        
    412 ****       216.5000  21.5000  25.7500 Du        
    413 ****       216.7500  15.5000  18.7500 Du        
    414 ****       216.7500  15.5000  19.0000 Du        
    415 ****       216.7500  15.5000  19.2500 Du        
    416 ****       216.7500  15.5000  20.0000 Du        
    417 ****       216.7500  15.5000  20.2500 Du        
    418 ****       216.7500  15.7500  18.0000 Du        
    419 ****       216.7500  15.7500  18.2500 Du        
    420 ****       216.7500  15.7500  18.5000 Du        
    421 ****       216.7500  15.7500  18.7500 Du        
    422 ****       216.7500  15.7500  19.0000 Du        
    423 ****       216.7500  15.7500  19.2500 Du        
    424 ****       216.7500  15.7500  19.5000 Du        
    425 ****       216.7500  15.7500  19.7500 Du        
    426 ****       216.7500  15.7500  20.0000 Du        
    427 ****       216.7500  15.7500  20.2500 Du        
    428 ****       216.7500  15.7500  20.5000 Du        
    429 ****       216.7500  15.7500  20.7500 Du        
    430 ****       216.7500  15.7500  21.0000 Du        
    431 ****       216.7500  15.7500  21.2500 Du        
    432 ****       216.7500  16.0000  17.7500 Du        
    433 ****       216.7500  16.0000  18.0000 Du        
    434 ****       216.7500  16.0000  18.2500 Du        
    435 ****       216.7500  16.0000  18.5000 Du        
    436 ****       216.7500  16.0000  18.7500 Du        
    437 ****       216.7500  16.0000  19.0000 Du        
    438 ****       216.7500  16.0000  19.2500 Du        
    439 ****       216.7500  16.0000  19.5000 Du        
    440 ****       216.7500  16.0000  19.7500 Du        
    441 ****       216.7500  16.0000  20.0000 Du        
    442 ****       216.7500  16.0000  20.2500 Du        
    443 ****       216.7500  16.0000  20.5000 Du        
    444 ****       216.7500  16.0000  20.7500 Du        
    445 ****       216.7500  16.0000  21.0000 Du        
    446 ****       216.7500  16.0000  21.2500 Du        
    447 ****       216.7500  16.0000  21.5000 Du        
    448 ****       216.7500  16.0000  21.7500 Du        
    449 ****       216.7500  16.2500  17.7500 Du        
    450 ****       216.7500  16.2500  18.0000 Du        
    451 ****       216.7500  16.2500  18.2500 Du        
    452 ****       216.7500  16.2500  18.5000 Du        
    453 ****       216.7500  16.2500  18.7500 Du        
    454 ****       216.7500  16.2500  19.0000 Du        
    455 ****       216.7500  16.2500  19.2500 Du        
    456 ****       216.7500  16.2500  19.5000 Du        
    457 ****       216.7500  16.2500  19.7500 Du        
    458 ****       216.7500  16.2500  20.0000 Du        
    459 ****       216.7500  16.2500  20.2500 Du        
    460 ****       216.7500  16.2500  20.5000 Du        
    461 ****       216.7500  16.2500  20.7500 Du        
    462 ****       216.7500  16.2500  21.0000 Du        
    463 ****       216.7500  16.2500  21.2500 Du        
    464 ****       216.7500  16.2500  21.5000 Du        
    465 ****       216.7500  16.2500  21.7500 Du        
    466 ****       216.7500  16.2500  22.0000 Du        
    467 ****       216.7500  16.5000  17.7500 Du        
    468 ****       216.7500  16.5000  18.0000 Du        
    469 ****       216.7500  16.5000  18.2500 Du        
    470 ****       216.7500  16.5000  18.5000 Du        
    471 ****       216.7500  16.5000  18.7500 Du        
    472 ****       216.7500  16.5000  19.0000 Du        
    473 ****       216.7500  16.5000  19.2500 Du        
    474 ****       216.7500  16.5000  19.5000 Du        
    475 ****       216.7500  16.5000  19.7500 Du        
    476 ****       216.7500  16.5000  20.0000 Du        
    477 ****       216.7500  16.5000  20.2500 Du        
    478 ****       216.7500  16.5000  20.5000 Du        
    479 ****       216.7500  16.5000  20.7500 Du        
    480 ****       216.7500  16.5000  21.0000 Du        
    481 ****       216.7500  16.5000  21.2500 Du        
    482 ****       216.7500  16.5000  21.5000 Du        
    483 ****       216.7500  16.5000  21.7500 Du        
    484 ****       216.7500  16.5000  22.0000 Du        
    485 ****       216.7500  16.5000  22.2500 Du        
    486 ****       216.7500  16.7500  18.5000 Du        
    487 ****       216.7500  16.7500  18.7500 Du        
    488 ****       216.7500  16.7500  19.0000 Du        
    489 ****       216.7500  16.7500  19.2500 Du        
    490 ****       216.7500  16.7500  19.5000 Du        
    491 ****       216.7500  16.7500  19.7500 Du        
    492 ****       216.7500  16.7500  20.0000 Du        
    493 ****       216.7500  16.7500  20.2500 Du        
    494 ****       216.7500  16.7500  20.5000 Du        
    495 ****       216.7500  16.7500  20.7500 Du        
    496 ****       216.7500  16.7500  21.0000 Du        
    497 ****       216.7500  16.7500  21.2500 Du        
    498 ****       216.7500  16.7500  21.5000 Du        
    499 ****       216.7500  16.7500  21.7500 Du        
    500 ****       216.7500  16.7500  22.0000 Du        
    501 ****       216.7500  16.7500  22.2500 Du        
    502 ****       216.7500  16.7500  25.7500 Du        
    503 ****       216.7500  17.0000  19.0000 Du        
    504 ****       216.7500  17.0000  19.2500 Du        
    505 ****       216.7500  17.0000  19.5000 Du        
    506 ****       216.7500  17.0000  19.7500 Du        
    507 ****       216.7500  17.0000  20.0000 Du        
    508 ****       216.7500  17.0000  20.2500 Du        
    509 ****       216.7500  17.0000  20.5000 Du        
    510 ****       216.7500  17.0000  20.7500 Du        
    511 ****       216.7500  17.0000  21.0000 Du        
    512 ****       216.7500  17.0000  21.2500 Du        
    513 ****       216.7500  17.0000  21.5000 Du        
    514 ****       216.7500  17.0000  21.7500 Du        
    515 ****       216.7500  17.0000  22.0000 Du        
    516 ****       216.7500  17.0000  22.2500 Du        
    517 ****       216.7500  17.0000  22.5000 Du        
    518 ****       216.7500  17.0000  25.7500 Du        
    519 ****       216.7500  17.2500  19.7500 Du        
    520 ****       216.7500  17.2500  20.0000 Du        
    521 ****       216.7500  17.2500  20.2500 Du        
    522 ****       216.7500  17.2500  20.5000 Du        
    523 ****       216.7500  17.2500  20.7500 Du        
    524 ****       216.7500  17.2500  21.0000 Du        
    525 ****       216.7500  17.2500  21.2500 Du        
    526 ****       216.7500  17.2500  21.5000 Du        
    527 ****       216.7500  17.2500  21.7500 Du        
    528 ****       216.7500  17.2500  22.0000 Du        
    529 ****       216.7500  17.2500  22.2500 Du        
    530 ****       216.7500  17.2500  22.5000 Du        
    531 ****       216.7500  17.2500  25.7500 Du        
    532 ****       216.7500  17.5000  22.2500 Du        
    533 ****       216.7500  17.5000  22.7500 Du        
    534 ****       216.7500  17.5000  23.0000 Du        
    535 ****       216.7500  17.5000  25.2500 Du        
    536 ****       216.7500  17.5000  25.5000 Du        
    537 ****       216.7500  17.5000  25.7500 Du        
    538 ****       216.7500  17.7500  25.2500 Du        
    539 ****       216.7500  17.7500  25.5000 Du        
    540 ****       216.7500  17.7500  25.7500 Du        
    541 ****       216.7500  18.0000  25.0000 Du        
    542 ****       216.7500  18.0000  25.2500 Du        
    543 ****       216.7500  18.0000  25.5000 Du        
    544 ****       216.7500  18.0000  25.7500 Du        
    545 ****       216.7500  18.2500  24.7500 Du        
    546 ****       216.7500  18.2500  25.0000 Du        
    547 ****       216.7500  18.2500  25.2500 Du        
    548 ****       216.7500  18.2500  25.5000 Du        
    549 ****       216.7500  18.2500  25.7500 Du        
    550 ****       216.7500  18.5000  24.7500 Du        
    551 ****       216.7500  18.5000  25.0000 Du        
    552 ****       216.7500  18.5000  25.2500 Du        
    553 ****       216.7500  18.5000  25.5000 Du        
    554 ****       216.7500  18.5000  25.7500 Du        
    555 ****       216.7500  18.7500  24.5000 Du        
    556 ****       216.7500  18.7500  24.7500 Du        
    557 ****       216.7500  18.7500  25.0000 Du        
    558 ****       216.7500  18.7500  25.2500 Du        
    559 ****       216.7500  18.7500  25.5000 Du        
    560 ****       216.7500  18.7500  25.7500 Du        
    561 ****       216.7500  19.0000  24.7500 Du        
    562 ****       216.7500  19.0000  25.0000 Du        
    563 ****       216.7500  19.0000  25.2500 Du        
    564 ****       216.7500  19.0000  25.5000 Du        
    565 ****       216.7500  19.0000  25.7500 Du        
    566 ****       216.7500  19.2500  24.7500 Du        
    567 ****       216.7500  19.2500  25.0000 Du        
    568 ****       216.7500  19.2500  25.2500 Du        
    569 ****       216.7500  19.2500  25.5000 Du        
    570 ****       216.7500  19.2500  25.7500 Du        
    571 ****       216.7500  19.5000  24.7500 Du        
    572 ****       216.7500  19.5000  25.0000 Du        
    573 ****       216.7500  19.5000  25.2500 Du        
    574 ****       216.7500  19.5000  25.5000 Du        
    575 ****       216.7500  19.5000  25.7500 Du        
    576 ****       216.7500  19.7500  24.7500 Du        
    577 ****       216.7500  19.7500  25.0000 Du        
    578 ****       216.7500  19.7500  25.2500 Du        
    579 ****       216.7500  19.7500  25.5000 Du        
    580 ****       216.7500  19.7500  25.7500 Du        
    581 ****       216.7500  20.0000  24.7500 Du        
    582 ****       216.7500  20.0000  25.0000 Du        
    583 ****       216.7500  20.0000  25.2500 Du        
    584 ****       216.7500  20.0000  25.5000 Du        
    585 ****       216.7500  20.0000  25.7500 Du        
    586 ****       216.7500  20.2500  24.7500 Du        
    587 ****       216.7500  20.2500  25.0000 Du        
    588 ****       216.7500  20.2500  25.2500 Du        
    589 ****       216.7500  20.2500  25.5000 Du        
    590 ****       216.7500  20.2500  25.7500 Du        
    591 ****       216.7500  20.5000  24.7500 Du        
    592 ****       216.7500  20.5000  25.0000 Du        
    593 ****       216.7500  20.5000  25.2500 Du        
    594 ****       216.7500  20.5000  25.5000 Du        
    595 ****       216.7500  20.5000  25.7500 Du        
    596 ****       216.7500  20.7500  24.7500 Du        
    597 ****       216.7500  20.7500  25.0000 Du        
    598 ****       216.7500  20.7500  25.2500 Du        
    599 ****       216.7500  20.7500  25.5000 Du        
    600 ****       216.7500  20.7500  25.7500 Du        
    601 ****       216.7500  21.0000  24.7500 Du        
    602 ****       216.7500  21.0000  25.0000 Du        
    603 ****       216.7500  21.0000  25.2500 Du        
    604 ****       216.7500  21.0000  25.5000 Du        
    605 ****       216.7500  21.0000  25.7500 Du        
    606 ****       216.7500  21.2500  24.7500 Du        
    607 ****       216.7500  21.2500  25.0000 Du        
    608 ****       216.7500  21.2500  25.2500 Du        
    609 ****       216.7500  21.2500  25.5000 Du        
    610 ****       216.7500  21.2500  25.7500 Du        
    611 ****       216.7500  21.5000  25.0000 Du        
    612 ****       216.7500  21.5000  25.2500 Du        
    613 ****       216.7500  21.5000  25.5000 Du        
    614 ****       216.7500  21.5000  25.7500 Du        
    615 ****       216.7500  21.7500  25.2500 Du        
    616 ****       216.7500  21.7500  25.5000 Du        
    617 ****       216.7500  21.7500  25.7500 Du        
    618 ****       217.0000  15.5000  18.7500 Du        
    619 ****       217.0000  15.5000  19.0000 Du        
    620 ****       217.0000  15.5000  19.2500 Du        
    621 ****       217.0000  15.5000  19.7500 Du        
    622 ****       217.0000  15.5000  20.0000 Du        
    623 ****       217.0000  15.5000  20.2500 Du        
    624 ****       217.0000  15.5000  20.7500 Du        
    625 ****       217.0000  15.7500  18.0000 Du        
    626 ****       217.0000  15.7500  18.2500 Du        
    627 ****       217.0000  15.7500  18.5000 Du        
    628 ****       217.0000  15.7500  18.7500 Du        
    629 ****       217.0000  15.7500  19.0000 Du        
    630 ****       217.0000  15.7500  19.2500 Du        
    631 ****       217.0000  15.7500  19.5000 Du        
    632 ****       217.0000  15.7500  19.7500 Du        
    633 ****       217.0000  15.7500  20.0000 Du        
    634 ****       217.0000  15.7500  20.2500 Du        
    635 ****       217.0000  15.7500  20.5000 Du        
    636 ****       217.0000  15.7500  20.7500 Du        
    637 ****       217.0000  15.7500  21.0000 Du        
    638 ****       217.0000  15.7500  21.2500 Du        
    639 ****       217.0000  16.0000  17.7500 Du        
    640 ****       217.0000  16.0000  18.0000 Du        
    641 ****       217.0000  16.0000  18.2500 Du        
    642 ****       217.0000  16.0000  18.5000 Du        
    643 ****       217.0000  16.0000  18.7500 Du        
    644 ****       217.0000  16.0000  19.0000 Du        
    645 ****       217.0000  16.0000  19.2500 Du        
    646 ****       217.0000  16.0000  19.5000 Du        
    647 ****       217.0000  16.0000  19.7500 Du        
    648 ****       217.0000  16.0000  20.0000 Du        
    649 ****       217.0000  16.0000  20.2500 Du        
    650 ****       217.0000  16.0000  20.5000 Du        
    651 ****       217.0000  16.0000  20.7500 Du        
    652 ****       217.0000  16.0000  21.0000 Du        
    653 ****       217.0000  16.0000  21.2500 Du        
    654 ****       217.0000  16.0000  21.5000 Du        
    655 ****       217.0000  16.0000  21.7500 Du        
    656 ****       217.0000  16.2500  17.5000 Du        
    657 ****       217.0000  16.2500  17.7500 Du        
    658 ****       217.0000  16.2500  18.0000 Du        
    659 ****       217.0000  16.2500  18.2500 Du        
    660 ****       217.0000  16.2500  18.5000 Du        
    661 ****       217.0000  16.2500  18.7500 Du        
    662 ****       217.0000  16.2500  19.0000 Du        
    663 ****       217.0000  16.2500  19.2500 Du        
    664 ****       217.0000  16.2500  19.5000 Du        
    665 ****       217.0000  16.2500  19.7500 Du        
    666 ****       217.0000  16.2500  20.0000 Du        
    667 ****       217.0000  16.2500  20.2500 Du        
    668 ****       217.0000  16.2500  20.5000 Du        
    669 ****       217.0000  16.2500  20.7500 Du        
    670 ****       217.0000  16.2500  21.0000 Du        
    671 ****       217.0000  16.2500  21.2500 Du        
    672 ****       217.0000  16.2500  21.5000 Du        
    673 ****       217.0000  16.2500  21.7500 Du        
    674 ****       217.0000  16.5000  17.2500 Du        
    675 ****       217.0000  16.5000  17.5000 Du        
    676 ****       217.0000  16.5000  17.7500 Du        
    677 ****       217.0000  16.5000  18.0000 Du        
    678 ****       217.0000  16.5000  18.2500 Du        
    679 ****       217.0000  16.5000  18.5000 Du        
    680 ****       217.0000  16.5000  18.7500 Du        
    681 ****       217.0000  16.5000  19.0000 Du        
    682 ****       217.0000  16.5000  19.2500 Du        
    683 ****       217.0000  16.5000  19.5000 Du        
    684 ****       217.0000  16.5000  19.7500 Du        
    685 ****       217.0000  16.5000  20.0000 Du        
    686 ****       217.0000  16.5000  20.2500 Du        
    687 ****       217.0000  16.5000  20.5000 Du        
    688 ****       217.0000  16.5000  20.7500 Du        
    689 ****       217.0000  16.5000  21.0000 Du        
    690 ****       217.0000  16.5000  21.2500 Du        
    691 ****       217.0000  16.5000  21.5000 Du        
    692 ****       217.0000  16.5000  21.7500 Du        
    693 ****       217.0000  16.5000  22.0000 Du        
    694 ****       217.0000  16.7500  17.0000 Du        
    695 ****       217.0000  16.7500  17.2500 Du        
    696 ****       217.0000  16.7500  17.5000 Du        
    697 ****       217.0000  16.7500  17.7500 Du        
    698 ****       217.0000  16.7500  18.0000 Du        
    699 ****       217.0000  16.7500  18.2500 Du        
    700 ****       217.0000  16.7500  18.5000 Du        
    701 ****       217.0000  16.7500  18.7500 Du        
    702 ****       217.0000  16.7500  19.0000 Du        
    703 ****       217.0000  16.7500  19.2500 Du        
    704 ****       217.0000  16.7500  19.5000 Du        
    705 ****       217.0000  16.7500  19.7500 Du        
    706 ****       217.0000  16.7500  20.0000 Du        
    707 ****       217.0000  16.7500  20.2500 Du        
    708 ****       217.0000  16.7500  20.5000 Du        
    709 ****       217.0000  16.7500  20.7500 Du        
    710 ****       217.0000  16.7500  21.0000 Du        
    711 ****       217.0000  16.7500  21.2500 Du        
    712 ****       217.0000  16.7500  21.5000 Du        
    713 ****       217.0000  16.7500  21.7500 Du        
    714 ****       217.0000  16.7500  22.0000 Du        
    715 ****       217.0000  16.7500  22.2500 Du        
    716 ****       217.0000  17.0000  17.0000 Du        
    717 ****       217.0000  17.0000  18.0000 Du        
    718 ****       217.0000  17.0000  18.2500 Du        
    719 ****       217.0000  17.0000  18.5000 Du        
    720 ****       217.0000  17.0000  18.7500 Du        
    721 ****       217.0000  17.0000  19.0000 Du        
    722 ****       217.0000  17.0000  19.2500 Du        
    723 ****       217.0000  17.0000  19.5000 Du        
    724 ****       217.0000  17.0000  19.7500 Du        
    725 ****       217.0000  17.0000  20.0000 Du        
    726 ****       217.0000  17.0000  20.2500 Du        
    727 ****       217.0000  17.0000  20.5000 Du        
    728 ****       217.0000  17.0000  20.7500 Du        
    729 ****       217.0000  17.0000  21.0000 Du        
    730 ****       217.0000  17.0000  21.2500 Du        
    731 ****       217.0000  17.0000  21.5000 Du        
    732 ****       217.0000  17.0000  21.7500 Du        
    733 ****       217.0000  17.0000  22.0000 Du        
    734 ****       217.0000  17.0000  22.2500 Du        
    735 ****       217.0000  17.0000  25.7500 Du        
    736 ****       217.0000  17.2500  19.0000 Du        
    737 ****       217.0000  17.2500  19.2500 Du        
    738 ****       217.0000  17.2500  22.0000 Du        
    739 ****       217.0000  17.2500  22.2500 Du        
    740 ****       217.0000  17.2500  25.7500 Du        
    741 ****       217.0000  17.5000  25.2500 Du        
    742 ****       217.0000  17.5000  25.5000 Du        
    743 ****       217.0000  17.5000  25.7500 Du        
    744 ****       217.0000  17.7500  25.0000 Du        
    745 ****       217.0000  17.7500  25.2500 Du        
    746 ****       217.0000  17.7500  25.5000 Du        
    747 ****       217.0000  17.7500  25.7500 Du        
    748 ****       217.0000  18.0000  24.7500 Du        
    749 ****       217.0000  18.0000  25.0000 Du        
    750 ****       217.0000  18.0000  25.2500 Du        
    751 ****       217.0000  18.0000  25.5000 Du        
    752 ****       217.0000  18.0000  25.7500 Du        
    753 ****       217.0000  18.2500  24.2500 Du        
    754 ****       217.0000  18.2500  24.5000 Du        
    755 ****       217.0000  18.2500  24.7500 Du        
    756 ****       217.0000  18.2500  25.0000 Du        
    757 ****       217.0000  18.2500  25.2500 Du        
    758 ****       217.0000  18.2500  25.5000 Du        
    759 ****       217.0000  18.2500  25.7500 Du        
    760 ****       217.0000  18.5000  24.5000 Du        
    761 ****       217.0000  18.5000  24.7500 Du        
    762 ****       217.0000  18.5000  25.0000 Du        
    763 ****       217.0000  18.5000  25.2500 Du        
    764 ****       217.0000  18.5000  25.5000 Du        
    765 ****       217.0000  18.5000  25.7500 Du        
    766 ****       217.0000  18.7500  15.7500 Du        
    767 ****       217.0000  18.7500  24.5000 Du        
    768 ****       217.0000  18.7500  24.7500 Du        
    769 ****       217.0000  18.7500  25.0000 Du        
    770 ****       217.0000  18.7500  25.2500 Du        
    771 ****       217.0000  18.7500  25.5000 Du        
    772 ****       217.0000  18.7500  25.7500 Du        
    773 ****       217.0000  19.0000  15.7500 Du        
    774 ****       217.0000  19.0000  24.7500 Du        
    775 ****       217.0000  19.0000  25.0000 Du        
    776 ****       217.0000  19.0000  25.2500 Du        
    777 ****       217.0000  19.0000  25.5000 Du        
    778 ****       217.0000  19.0000  25.7500 Du        
    779 ****       217.0000  19.2500  24.7500 Du        
    780 ****       217.0000  19.2500  25.0000 Du        
    781 ****       217.0000  19.2500  25.2500 Du        
    782 ****       217.0000  19.2500  25.5000 Du        
    783 ****       217.0000  19.2500  25.7500 Du        
    784 ****       217.0000  19.5000  24.7500 Du        
    785 ****       217.0000  19.5000  25.0000 Du        
    786 ****       217.0000  19.5000  25.2500 Du        
    787 ****       217.0000  19.5000  25.5000 Du        
    788 ****       217.0000  19.5000  25.7500 Du        
    789 ****       217.0000  19.7500  24.7500 Du        
    790 ****       217.0000  19.7500  25.0000 Du        
    791 ****       217.0000  19.7500  25.2500 Du        
    792 ****       217.0000  19.7500  25.5000 Du        
    793 ****       217.0000  19.7500  25.7500 Du        
    794 ****       217.0000  20.0000  24.7500 Du        
    795 ****       217.0000  20.0000  25.0000 Du        
    796 ****       217.0000  20.0000  25.2500 Du        
    797 ****       217.0000  20.0000  25.5000 Du        
    798 ****       217.0000  20.0000  25.7500 Du        
    799 ****       217.0000  20.2500  24.7500 Du        
    800 ****       217.0000  20.2500  25.0000 Du        
    801 ****       217.0000  20.2500  25.2500 Du        
    802 ****       217.0000  20.2500  25.5000 Du        
    803 ****       217.0000  20.2500  25.7500 Du        
    804 ****       217.0000  20.5000  24.7500 Du        
    805 ****       217.0000  20.5000  25.0000 Du        
    806 ****       217.0000  20.5000  25.2500 Du        
    807 ****       217.0000  20.5000  25.5000 Du        
    808 ****       217.0000  20.5000  25.7500 Du        
    809 ****       217.0000  20.7500  24.7500 Du        
    810 ****       217.0000  20.7500  25.0000 Du        
    811 ****       217.0000  20.7500  25.2500 Du        
    812 ****       217.0000  20.7500  25.5000 Du        
    813 ****       217.0000  20.7500  25.7500 Du        
    814 ****       217.0000  21.0000  24.7500 Du        
    815 ****       217.0000  21.0000  25.0000 Du        
    816 ****       217.0000  21.0000  25.2500 Du        
    817 ****       217.0000  21.0000  25.5000 Du        
    818 ****       217.0000  21.0000  25.7500 Du        
    819 ****       217.0000  21.2500  25.0000 Du        
    820 ****       217.0000  21.2500  25.2500 Du        
    821 ****       217.0000  21.2500  25.5000 Du        
    822 ****       217.0000  21.2500  25.7500 Du        
    823 ****       217.0000  21.5000  25.0000 Du        
    824 ****       217.0000  21.5000  25.2500 Du        
    825 ****       217.0000  21.5000  25.5000 Du        
    826 ****       217.0000  21.5000  25.7500 Du        
    827 ****       217.0000  21.7500  25.2500 Du        
    828 ****       217.0000  21.7500  25.5000 Du        
    829 ****       217.0000  21.7500  25.7500 Du        
    830 ****       217.2500  15.5000  18.5000 Du        
    831 ****       217.2500  15.5000  18.7500 Du        
    832 ****       217.2500  15.5000  19.0000 Du        
    833 ****       217.2500  15.5000  19.5000 Du        
    834 ****       217.2500  15.5000  19.7500 Du        
    835 ****       217.2500  15.5000  20.0000 Du        
    836 ****       217.2500  15.7500  17.7500 Du        
    837 ****       217.2500  15.7500  18.0000 Du        
    838 ****       217.2500  15.7500  18.2500 Du        
    839 ****       217.2500  15.7500  18.5000 Du        
    840 ****       217.2500  15.7500  18.7500 Du        
    841 ****       217.2500  15.7500  19.0000 Du        
    842 ****       217.2500  15.7500  19.2500 Du        
    843 ****       217.2500  15.7500  19.5000 Du        
    844 ****       217.2500  15.7500  19.7500 Du        
    845 ****       217.2500  15.7500  20.0000 Du        
    846 ****       217.2500  15.7500  20.2500 Du        
    847 ****       217.2500  15.7500  20.5000 Du        
    848 ****       217.2500  15.7500  20.7500 Du        
    849 ****       217.2500  15.7500  21.0000 Du        
    850 ****       217.2500  16.0000  17.5000 Du        
    851 ****       217.2500  16.0000  17.7500 Du        
    852 ****       217.2500  16.0000  18.0000 Du        
    853 ****       217.2500  16.0000  18.2500 Du        
    854 ****       217.2500  16.0000  18.5000 Du        
    855 ****       217.2500  16.0000  18.7500 Du        
    856 ****       217.2500  16.0000  19.0000 Du        
    857 ****       217.2500  16.0000  19.2500 Du        
    858 ****       217.2500  16.0000  19.5000 Du        
    859 ****       217.2500  16.0000  19.7500 Du        
    860 ****       217.2500  16.0000  20.0000 Du        
    861 ****       217.2500  16.0000  20.2500 Du        
    862 ****       217.2500  16.0000  20.5000 Du        
    863 ****       217.2500  16.0000  20.7500 Du        
    864 ****       217.2500  16.0000  21.0000 Du        
    865 ****       217.2500  16.0000  21.2500 Du        
    866 ****       217.2500  16.2500  17.5000 Du        
    867 ****       217.2500  16.2500  17.7500 Du        
    868 ****       217.2500  16.2500  18.0000 Du        
    869 ****       217.2500  16.2500  18.2500 Du        
    870 ****       217.2500  16.2500  18.5000 Du        
    871 ****       217.2500  16.2500  18.7500 Du        
    872 ****       217.2500  16.2500  19.0000 Du        
    873 ****       217.2500  16.2500  19.2500 Du        
    874 ****       217.2500  16.2500  19.5000 Du        
    875 ****       217.2500  16.2500  19.7500 Du        
    876 ****       217.2500  16.2500  20.0000 Du        
    877 ****       217.2500  16.2500  20.2500 Du        
    878 ****       217.2500  16.2500  20.5000 Du        
    879 ****       217.2500  16.2500  20.7500 Du        
    880 ****       217.2500  16.2500  21.0000 Du        
    881 ****       217.2500  16.2500  21.2500 Du        
    882 ****       217.2500  16.5000  17.0000 Du        
    883 ****       217.2500  16.5000  17.2500 Du        
    884 ****       217.2500  16.5000  17.5000 Du        
    885 ****       217.2500  16.5000  17.7500 Du        
    886 ****       217.2500  16.5000  18.0000 Du        
    887 ****       217.2500  16.5000  18.2500 Du        
    888 ****       217.2500  16.5000  18.5000 Du        
    889 ****       217.2500  16.5000  18.7500 Du        
    890 ****       217.2500  16.5000  19.0000 Du        
    891 ****       217.2500  16.5000  19.2500 Du        
    892 ****       217.2500  16.5000  19.5000 Du        
    893 ****       217.2500  16.5000  19.7500 Du        
    894 ****       217.2500  16.5000  20.0000 Du        
    895 ****       217.2500  16.5000  20.2500 Du        
    896 ****       217.2500  16.5000  20.5000 Du        
    897 ****       217.2500  16.5000  20.7500 Du        
    898 ****       217.2500  16.5000  21.0000 Du        
    899 ****       217.2500  16.5000  21.2500 Du        
    900 ****       217.2500  16.5000  21.5000 Du        
    901 ****       217.2500  16.7500  16.7500 Du        
    902 ****       217.2500  16.7500  17.0000 Du        
    903 ****       217.2500  16.7500  17.2500 Du        
    904 ****       217.2500  16.7500  17.5000 Du        
    905 ****       217.2500  16.7500  17.7500 Du        
    906 ****       217.2500  16.7500  18.0000 Du        
    907 ****       217.2500  16.7500  18.2500 Du        
    908 ****       217.2500  16.7500  18.5000 Du        
    909 ****       217.2500  16.7500  18.7500 Du        
    910 ****       217.2500  16.7500  19.0000 Du        
    911 ****       217.2500  16.7500  19.2500 Du        
    912 ****       217.2500  16.7500  19.5000 Du        
    913 ****       217.2500  16.7500  19.7500 Du        
    914 ****       217.2500  16.7500  20.0000 Du        
    915 ****       217.2500  16.7500  20.2500 Du        
    916 ****       217.2500  16.7500  20.5000 Du        
    917 ****       217.2500  16.7500  20.7500 Du        
    918 ****       217.2500  16.7500  21.0000 Du        
    919 ****       217.2500  16.7500  21.2500 Du        
    920 ****       217.2500  16.7500  21.5000 Du        
    921 ****       217.2500  16.7500  21.7500 Du        
    922 ****       217.2500  17.0000  16.7500 Du        
    923 ****       217.2500  17.0000  17.0000 Du        
    924 ****       217.2500  17.0000  17.2500 Du        
    925 ****       217.2500  17.0000  17.5000 Du        
    926 ****       217.2500  17.0000  17.7500 Du        
    927 ****       217.2500  17.0000  18.0000 Du        
    928 ****       217.2500  17.0000  18.2500 Du        
    929 ****       217.2500  17.0000  18.5000 Du        
    930 ****       217.2500  17.0000  18.7500 Du        
    931 ****       217.2500  17.0000  19.0000 Du        
    932 ****       217.2500  17.0000  19.2500 Du        
    933 ****       217.2500  17.0000  19.5000 Du        
    934 ****       217.2500  17.0000  19.7500 Du        
    935 ****       217.2500  17.0000  20.0000 Du        
    936 ****       217.2500  17.0000  20.2500 Du        
    937 ****       217.2500  17.0000  20.5000 Du        
    938 ****       217.2500  17.0000  20.7500 Du        
    939 ****       217.2500  17.0000  21.0000 Du        
    940 ****       217.2500  17.0000  21.2500 Du        
    941 ****       217.2500  17.2500  16.5000 Du        
    942 ****       217.2500  17.2500  16.7500 Du        
    943 ****       217.2500  17.2500  17.0000 Du        
    944 ****       217.2500  17.2500  17.2500 Du        
    945 ****       217.2500  17.2500  17.5000 Du        
    946 ****       217.2500  17.2500  17.7500 Du        
    947 ****       217.2500  17.2500  18.0000 Du        
    948 ****       217.2500  17.2500  18.2500 Du        
    949 ****       217.2500  17.2500  18.5000 Du        
    950 ****       217.2500  17.2500  18.7500 Du        
    951 ****       217.2500  17.2500  19.0000 Du        
    952 ****       217.2500  17.2500  19.2500 Du        
    953 ****       217.2500  17.2500  25.7500 Du        
    954 ****       217.2500  17.5000  16.2500 Du        
    955 ****       217.2500  17.5000  16.5000 Du        
    956 ****       217.2500  17.5000  16.7500 Du        
    957 ****       217.2500  17.5000  25.5000 Du        
    958 ****       217.2500  17.5000  25.7500 Du        
    959 ****       217.2500  17.7500  16.2500 Du        
    960 ****       217.2500  17.7500  16.5000 Du        
    961 ****       217.2500  17.7500  25.0000 Du        
    962 ****       217.2500  17.7500  25.2500 Du        
    963 ****       217.2500  17.7500  25.5000 Du        
    964 ****       217.2500  17.7500  25.7500 Du        
    965 ****       217.2500  18.0000  16.0000 Du        
    966 ****       217.2500  18.0000  16.2500 Du        
    967 ****       217.2500  18.0000  24.7500 Du        
    968 ****       217.2500  18.0000  25.0000 Du        
    969 ****       217.2500  18.0000  25.2500 Du        
    970 ****       217.2500  18.0000  25.5000 Du        
    971 ****       217.2500  18.0000  25.7500 Du        
    972 ****       217.2500  18.2500  16.0000 Du        
    973 ****       217.2500  18.2500  16.2500 Du        
    974 ****       217.2500  18.2500  24.5000 Du        
    975 ****       217.2500  18.2500  24.7500 Du        
    976 ****       217.2500  18.2500  25.0000 Du        
    977 ****       217.2500  18.2500  25.2500 Du        
    978 ****       217.2500  18.2500  25.5000 Du        
    979 ****       217.2500  18.2500  25.7500 Du        
    980 ****       217.2500  18.5000  15.7500 Du        
    981 ****       217.2500  18.5000  16.0000 Du        
    982 ****       217.2500  18.5000  24.5000 Du        
    983 ****       217.2500  18.5000  24.7500 Du        
    984 ****       217.2500  18.5000  25.0000 Du        
    985 ****       217.2500  18.5000  25.2500 Du        
    986 ****       217.2500  18.5000  25.5000 Du        
    987 ****       217.2500  18.5000  25.7500 Du        
    988 ****       217.2500  18.7500  15.7500 Du        
    989 ****       217.2500  18.7500  16.0000 Du        
    990 ****       217.2500  18.7500  24.5000 Du        
    991 ****       217.2500  18.7500  24.7500 Du        
    992 ****       217.2500  18.7500  25.0000 Du        
    993 ****       217.2500  18.7500  25.2500 Du        
    994 ****       217.2500  18.7500  25.5000 Du        
    995 ****       217.2500  18.7500  25.7500 Du        
    996 ****       217.2500  19.0000  15.7500 Du        
    997 ****       217.2500  19.0000  16.0000 Du        
    998 ****       217.2500  19.0000  24.7500 Du        
    999 ****       217.2500  19.0000  25.0000 Du        
   1000 ****       217.2500  19.0000  25.2500 Du        
   1001 ****       217.2500  19.0000  25.5000 Du        
   1002 ****       217.2500  19.0000  25.7500 Du        
   1003 ****       217.2500  19.2500  16.0000 Du        
   1004 ****       217.2500  19.2500  24.7500 Du        
   1005 ****       217.2500  19.2500  25.0000 Du        
   1006 ****       217.2500  19.2500  25.2500 Du        
   1007 ****       217.2500  19.2500  25.5000 Du        
   1008 ****       217.2500  19.2500  25.7500 Du        
   1009 ****       217.2500  19.5000  24.7500 Du        
   1010 ****       217.2500  19.5000  25.0000 Du        
   1011 ****       217.2500  19.5000  25.2500 Du        
   1012 ****       217.2500  19.5000  25.5000 Du        
   1013 ****       217.2500  19.5000  25.7500 Du        
   1014 ****       217.2500  19.7500  24.7500 Du        
   1015 ****       217.2500  19.7500  25.0000 Du        
   1016 ****       217.2500  19.7500  25.2500 Du        
   1017 ****       217.2500  19.7500  25.5000 Du        
   1018 ****       217.2500  19.7500  25.7500 Du        
   1019 ****       217.2500  20.0000  24.7500 Du        
   1020 ****       217.2500  20.0000  25.0000 Du        
   1021 ****       217.2500  20.0000  25.2500 Du        
   1022 ****       217.2500  20.0000  25.5000 Du        
   1023 ****       217.2500  20.0000  25.7500 Du        
   1024 ****       217.2500  20.2500  24.7500 Du        
   1025 ****       217.2500  20.2500  25.0000 Du        
   1026 ****       217.2500  20.2500  25.2500 Du        
   1027 ****       217.2500  20.2500  25.5000 Du        
   1028 ****       217.2500  20.2500  25.7500 Du        
   1029 ****       217.2500  20.5000  24.7500 Du        
   1030 ****       217.2500  20.5000  25.0000 Du        
   1031 ****       217.2500  20.5000  25.2500 Du        
   1032 ****       217.2500  20.5000  25.5000 Du        
   1033 ****       217.2500  20.5000  25.7500 Du        
   1034 ****       217.2500  20.7500  24.7500 Du        
   1035 ****       217.2500  20.7500  25.0000 Du        
   1036 ****       217.2500  20.7500  25.2500 Du        
   1037 ****       217.2500  20.7500  25.5000 Du        
   1038 ****       217.2500  20.7500  25.7500 Du        
   1039 ****       217.2500  21.0000  25.0000 Du        
   1040 ****       217.2500  21.0000  25.2500 Du        
   1041 ****       217.2500  21.0000  25.5000 Du        
   1042 ****       217.2500  21.0000  25.7500 Du        
   1043 ****       217.2500  21.2500  25.0000 Du        
   1044 ****       217.2500  21.2500  25.2500 Du        
   1045 ****       217.2500  21.2500  25.5000 Du        
   1046 ****       217.2500  21.2500  25.7500 Du        
   1047 ****       217.2500  21.5000  25.2500 Du        
   1048 ****       217.2500  21.5000  25.5000 Du        
   1049 ****       217.2500  21.5000  25.7500 Du        
   1050 ****       217.2500  21.7500  25.7500 Du        
   1051 ****       217.5000  15.5000  19.2500 Du        
   1052 ****       217.5000  15.5000  20.2500 Du        
   1053 ****       217.5000  15.7500  18.2500 Du        
   1054 ****       217.5000  15.7500  18.7500 Du        
   1055 ****       217.5000  15.7500  19.0000 Du        
   1056 ****       217.5000  15.7500  19.2500 Du        
   1057 ****       217.5000  15.7500  20.0000 Du        
   1058 ****       217.5000  15.7500  20.2500 Du        
   1059 ****       217.5000  16.0000  17.5000 Du        
   1060 ****       217.5000  16.0000  17.7500 Du        
   1061 ****       217.5000  16.0000  18.0000 Du        
   1062 ****       217.5000  16.0000  18.2500 Du        
   1063 ****       217.5000  16.0000  18.5000 Du        
   1064 ****       217.5000  16.0000  18.7500 Du        
   1065 ****       217.5000  16.0000  19.0000 Du        
   1066 ****       217.5000  16.0000  19.2500 Du        
   1067 ****       217.5000  16.0000  19.5000 Du        
   1068 ****       217.5000  16.0000  19.7500 Du        
   1069 ****       217.5000  16.0000  20.0000 Du        
   1070 ****       217.5000  16.0000  20.2500 Du        
   1071 ****       217.5000  16.0000  20.5000 Du        
   1072 ****       217.5000  16.2500  17.2500 Du        
   1073 ****       217.5000  16.2500  17.5000 Du        
   1074 ****       217.5000  16.2500  17.7500 Du        
   1075 ****       217.5000  16.2500  18.0000 Du        
   1076 ****       217.5000  16.2500  18.2500 Du        
   1077 ****       217.5000  16.2500  18.5000 Du        
   1078 ****       217.5000  16.2500  18.7500 Du        
   1079 ****       217.5000  16.2500  19.0000 Du        
   1080 ****       217.5000  16.2500  19.2500 Du        
   1081 ****       217.5000  16.2500  19.5000 Du        
   1082 ****       217.5000  16.2500  19.7500 Du        
   1083 ****       217.5000  16.2500  20.0000 Du        
   1084 ****       217.5000  16.2500  20.2500 Du        
   1085 ****       217.5000  16.2500  20.5000 Du        
   1086 ****       217.5000  16.2500  20.7500 Du        
   1087 ****       217.5000  16.5000  17.0000 Du        
   1088 ****       217.5000  16.5000  17.2500 Du        
   1089 ****       217.5000  16.5000  17.5000 Du        
   1090 ****       217.5000  16.5000  17.7500 Du        
   1091 ****       217.5000  16.5000  18.0000 Du        
   1092 ****       217.5000  16.5000  18.2500 Du        
   1093 ****       217.5000  16.5000  18.5000 Du        
   1094 ****       217.5000  16.5000  18.7500 Du        
   1095 ****       217.5000  16.5000  19.0000 Du        
   1096 ****       217.5000  16.5000  19.2500 Du        
   1097 ****       217.5000  16.5000  19.5000 Du        
   1098 ****       217.5000  16.5000  19.7500 Du        
   1099 ****       217.5000  16.5000  20.0000 Du        
   1100 ****       217.5000  16.5000  20.2500 Du        
   1101 ****       217.5000  16.5000  20.5000 Du        
   1102 ****       217.5000  16.5000  20.7500 Du        
   1103 ****       217.5000  16.7500  16.7500 Du        
   1104 ****       217.5000  16.7500  17.0000 Du        
   1105 ****       217.5000  16.7500  17.2500 Du        
   1106 ****       217.5000  16.7500  17.5000 Du        
   1107 ****       217.5000  16.7500  17.7500 Du        
   1108 ****       217.5000  16.7500  18.0000 Du        
   1109 ****       217.5000  16.7500  18.2500 Du        
   1110 ****       217.5000  16.7500  18.5000 Du        
   1111 ****       217.5000  16.7500  18.7500 Du        
   1112 ****       217.5000  16.7500  19.0000 Du        
   1113 ****       217.5000  16.7500  19.2500 Du        
   1114 ****       217.5000  16.7500  19.5000 Du        
   1115 ****       217.5000  16.7500  19.7500 Du        
   1116 ****       217.5000  16.7500  20.0000 Du        
   1117 ****       217.5000  16.7500  20.2500 Du        
   1118 ****       217.5000  16.7500  20.5000 Du        
   1119 ****       217.5000  16.7500  20.7500 Du        
   1120 ****       217.5000  17.0000  16.5000 Du        
   1121 ****       217.5000  17.0000  16.7500 Du        
   1122 ****       217.5000  17.0000  17.0000 Du        
   1123 ****       217.5000  17.0000  17.2500 Du        
   1124 ****       217.5000  17.0000  17.5000 Du        
   1125 ****       217.5000  17.0000  17.7500 Du        
   1126 ****       217.5000  17.0000  18.0000 Du        
   1127 ****       217.5000  17.0000  18.2500 Du        
   1128 ****       217.5000  17.0000  18.5000 Du        
   1129 ****       217.5000  17.0000  18.7500 Du        
   1130 ****       217.5000  17.0000  19.0000 Du        
   1131 ****       217.5000  17.0000  19.2500 Du        
   1132 ****       217.5000  17.0000  19.5000 Du        
   1133 ****       217.5000  17.0000  19.7500 Du        
   1134 ****       217.5000  17.2500  16.5000 Du        
   1135 ****       217.5000  17.2500  16.7500 Du        
   1136 ****       217.5000  17.2500  17.0000 Du        
   1137 ****       217.5000  17.2500  17.2500 Du        
   1138 ****       217.5000  17.2500  17.5000 Du        
   1139 ****       217.5000  17.2500  17.7500 Du        
   1140 ****       217.5000  17.2500  18.0000 Du        
   1141 ****       217.5000  17.2500  18.2500 Du        
   1142 ****       217.5000  17.2500  18.5000 Du        
   1143 ****       217.5000  17.2500  18.7500 Du        
   1144 ****       217.5000  17.2500  19.0000 Du        
   1145 ****       217.5000  17.5000  16.2500 Du        
   1146 ****       217.5000  17.5000  16.5000 Du        
   1147 ****       217.5000  17.5000  16.7500 Du        
   1148 ****       217.5000  17.5000  17.0000 Du        
   1149 ****       217.5000  17.5000  17.2500 Du        
   1150 ****       217.5000  17.5000  17.5000 Du        
   1151 ****       217.5000  17.5000  17.7500 Du        
   1152 ****       217.5000  17.5000  18.0000 Du        
   1153 ****       217.5000  17.5000  18.2500 Du        
   1154 ****       217.5000  17.5000  18.5000 Du        
   1155 ****       217.5000  17.5000  25.5000 Du        
   1156 ****       217.5000  17.5000  25.7500 Du        
   1157 ****       217.5000  17.7500  16.0000 Du        
   1158 ****       217.5000  17.7500  16.2500 Du        
   1159 ****       217.5000  17.7500  16.5000 Du        
   1160 ****       217.5000  17.7500  16.7500 Du        
   1161 ****       217.5000  17.7500  17.0000 Du        
   1162 ****       217.5000  17.7500  17.2500 Du        
   1163 ****       217.5000  17.7500  25.2500 Du        
   1164 ****       217.5000  17.7500  25.5000 Du        
   1165 ****       217.5000  17.7500  25.7500 Du        
   1166 ****       217.5000  18.0000  16.0000 Du        
   1167 ****       217.5000  18.0000  16.2500 Du        
   1168 ****       217.5000  18.0000  16.5000 Du        
   1169 ****       217.5000  18.0000  16.7500 Du        
   1170 ****       217.5000  18.0000  24.7500 Du        
   1171 ****       217.5000  18.0000  25.0000 Du        
   1172 ****       217.5000  18.0000  25.2500 Du        
   1173 ****       217.5000  18.0000  25.5000 Du        
   1174 ****       217.5000  18.0000  25.7500 Du        
   1175 ****       217.5000  18.2500  15.7500 Du        
   1176 ****       217.5000  18.2500  16.0000 Du        
   1177 ****       217.5000  18.2500  16.2500 Du        
   1178 ****       217.5000  18.2500  16.5000 Du        
   1179 ****       217.5000  18.2500  24.5000 Du        
   1180 ****       217.5000  18.2500  24.7500 Du        
   1181 ****       217.5000  18.2500  25.0000 Du        
   1182 ****       217.5000  18.2500  25.2500 Du        
   1183 ****       217.5000  18.2500  25.5000 Du        
   1184 ****       217.5000  18.2500  25.7500 Du        
   1185 ****       217.5000  18.5000  15.7500 Du        
   1186 ****       217.5000  18.5000  16.0000 Du        
   1187 ****       217.5000  18.5000  16.2500 Du        
   1188 ****       217.5000  18.5000  16.5000 Du        
   1189 ****       217.5000  18.5000  24.5000 Du        
   1190 ****       217.5000  18.5000  24.7500 Du        
   1191 ****       217.5000  18.5000  25.0000 Du        
   1192 ****       217.5000  18.5000  25.2500 Du        
   1193 ****       217.5000  18.5000  25.5000 Du        
   1194 ****       217.5000  18.5000  25.7500 Du        
   1195 ****       217.5000  18.7500  15.7500 Du        
   1196 ****       217.5000  18.7500  16.0000 Du        
   1197 ****       217.5000  18.7500  16.2500 Du        
   1198 ****       217.5000  18.7500  16.5000 Du        
   1199 ****       217.5000  18.7500  24.7500 Du        
   1200 ****       217.5000  18.7500  25.0000 Du        
   1201 ****       217.5000  18.7500  25.2500 Du        
   1202 ****       217.5000  18.7500  25.5000 Du        
   1203 ****       217.5000  18.7500  25.7500 Du        
   1204 ****       217.5000  19.0000  16.0000 Du        
   1205 ****       217.5000  19.0000  16.2500 Du        
   1206 ****       217.5000  19.0000  16.5000 Du        
   1207 ****       217.5000  19.0000  24.7500 Du        
   1208 ****       217.5000  19.0000  25.0000 Du        
   1209 ****       217.5000  19.0000  25.2500 Du        
   1210 ****       217.5000  19.0000  25.5000 Du        
   1211 ****       217.5000  19.0000  25.7500 Du        
   1212 ****       217.5000  19.2500  16.0000 Du        
   1213 ****       217.5000  19.2500  16.2500 Du        
   1214 ****       217.5000  19.2500  24.7500 Du        
   1215 ****       217.5000  19.2500  25.0000 Du        
   1216 ****       217.5000  19.2500  25.2500 Du        
   1217 ****       217.5000  19.2500  25.5000 Du        
   1218 ****       217.5000  19.2500  25.7500 Du        
   1219 ****       217.5000  19.5000  16.2500 Du        
   1220 ****       217.5000  19.5000  24.7500 Du        
   1221 ****       217.5000  19.5000  25.0000 Du        
   1222 ****       217.5000  19.5000  25.2500 Du        
   1223 ****       217.5000  19.5000  25.5000 Du        
   1224 ****       217.5000  19.5000  25.7500 Du        
   1225 ****       217.5000  19.7500  24.7500 Du        
   1226 ****       217.5000  19.7500  25.0000 Du        
   1227 ****       217.5000  19.7500  25.2500 Du        
   1228 ****       217.5000  19.7500  25.5000 Du        
   1229 ****       217.5000  19.7500  25.7500 Du        
   1230 ****       217.5000  20.0000  25.0000 Du        
   1231 ****       217.5000  20.0000  25.2500 Du        
   1232 ****       217.5000  20.0000  25.5000 Du        
   1233 ****       217.5000  20.0000  25.7500 Du        
   1234 ****       217.5000  20.2500  25.0000 Du        
   1235 ****       217.5000  20.2500  25.2500 Du        
   1236 ****       217.5000  20.2500  25.5000 Du        
   1237 ****       217.5000  20.2500  25.7500 Du        
   1238 ****       217.5000  20.5000  25.0000 Du        
   1239 ****       217.5000  20.5000  25.2500 Du        
   1240 ****       217.5000  20.5000  25.5000 Du        
   1241 ****       217.5000  20.5000  25.7500 Du        
   1242 ****       217.5000  20.7500  25.0000 Du        
   1243 ****       217.5000  20.7500  25.2500 Du        
   1244 ****       217.5000  20.7500  25.5000 Du        
   1245 ****       217.5000  20.7500  25.7500 Du        
   1246 ****       217.5000  21.0000  25.0000 Du        
   1247 ****       217.5000  21.0000  25.2500 Du        
   1248 ****       217.5000  21.0000  25.5000 Du        
   1249 ****       217.5000  21.0000  25.7500 Du        
   1250 ****       217.5000  21.2500  25.0000 Du        
   1251 ****       217.5000  21.2500  25.2500 Du        
   1252 ****       217.5000  21.2500  25.5000 Du        
   1253 ****       217.5000  21.2500  25.7500 Du        
   1254 ****       217.5000  21.5000  25.2500 Du        
   1255 ****       217.5000  21.5000  25.5000 Du        
   1256 ****       217.5000  21.5000  25.7500 Du        
   1257 ****       217.5000  21.7500  25.7500 Du        
   1258 ****       217.7500  15.5000  19.0000 Du        
   1259 ****       217.7500  15.5000  19.2500 Du        
   1260 ****       217.7500  15.7500  18.5000 Du        
   1261 ****       217.7500  15.7500  18.7500 Du        
   1262 ****       217.7500  15.7500  19.0000 Du        
   1263 ****       217.7500  15.7500  19.2500 Du        
   1264 ****       217.7500  15.7500  19.7500 Du        
   1265 ****       217.7500  15.7500  20.0000 Du        
   1266 ****       217.7500  16.0000  17.5000 Du        
   1267 ****       217.7500  16.0000  17.7500 Du        
   1268 ****       217.7500  16.0000  18.0000 Du        
   1269 ****       217.7500  16.0000  18.2500 Du        
   1270 ****       217.7500  16.0000  18.5000 Du        
   1271 ****       217.7500  16.0000  18.7500 Du        
   1272 ****       217.7500  16.0000  19.0000 Du        
   1273 ****       217.7500  16.0000  19.2500 Du        
   1274 ****       217.7500  16.0000  19.5000 Du        
   1275 ****       217.7500  16.0000  19.7500 Du        
   1276 ****       217.7500  16.0000  20.0000 Du        
   1277 ****       217.7500  16.0000  20.2500 Du        
   1278 ****       217.7500  16.2500  17.0000 Du        
   1279 ****       217.7500  16.2500  17.2500 Du        
   1280 ****       217.7500  16.2500  17.5000 Du        
   1281 ****       217.7500  16.2500  17.7500 Du        
   1282 ****       217.7500  16.2500  18.0000 Du        
   1283 ****       217.7500  16.2500  18.2500 Du        
   1284 ****       217.7500  16.2500  18.5000 Du        
   1285 ****       217.7500  16.2500  18.7500 Du        
   1286 ****       217.7500  16.2500  19.0000 Du        
   1287 ****       217.7500  16.2500  19.2500 Du        
   1288 ****       217.7500  16.2500  19.5000 Du        
   1289 ****       217.7500  16.2500  19.7500 Du        
   1290 ****       217.7500  16.2500  20.0000 Du        
   1291 ****       217.7500  16.2500  20.2500 Du        
   1292 ****       217.7500  16.5000  16.7500 Du        
   1293 ****       217.7500  16.5000  17.0000 Du        
   1294 ****       217.7500  16.5000  17.2500 Du        
   1295 ****       217.7500  16.5000  17.5000 Du        
   1296 ****       217.7500  16.5000  17.7500 Du        
   1297 ****       217.7500  16.5000  18.0000 Du        
   1298 ****       217.7500  16.5000  18.2500 Du        
   1299 ****       217.7500  16.5000  18.5000 Du        
   1300 ****       217.7500  16.5000  18.7500 Du        
   1301 ****       217.7500  16.5000  19.0000 Du        
   1302 ****       217.7500  16.5000  19.2500 Du        
   1303 ****       217.7500  16.5000  19.5000 Du        
   1304 ****       217.7500  16.5000  19.7500 Du        
   1305 ****       217.7500  16.5000  20.0000 Du        
   1306 ****       217.7500  16.5000  20.2500 Du        
   1307 ****       217.7500  16.7500  16.7500 Du        
   1308 ****       217.7500  16.7500  17.0000 Du        
   1309 ****       217.7500  16.7500  17.2500 Du        
   1310 ****       217.7500  16.7500  17.5000 Du        
   1311 ****       217.7500  16.7500  17.7500 Du        
   1312 ****       217.7500  16.7500  18.0000 Du        
   1313 ****       217.7500  16.7500  18.2500 Du        
   1314 ****       217.7500  16.7500  18.5000 Du        
   1315 ****       217.7500  16.7500  18.7500 Du        
   1316 ****       217.7500  16.7500  19.0000 Du        
   1317 ****       217.7500  16.7500  19.2500 Du        
   1318 ****       217.7500  16.7500  19.5000 Du        
   1319 ****       217.7500  16.7500  19.7500 Du        
   1320 ****       217.7500  16.7500  20.0000 Du        
   1321 ****       217.7500  17.0000  16.5000 Du        
   1322 ****       217.7500  17.0000  16.7500 Du        
   1323 ****       217.7500  17.0000  17.0000 Du        
   1324 ****       217.7500  17.0000  17.2500 Du        
   1325 ****       217.7500  17.0000  17.5000 Du        
   1326 ****       217.7500  17.0000  17.7500 Du        
   1327 ****       217.7500  17.0000  18.0000 Du        
   1328 ****       217.7500  17.0000  18.2500 Du        
   1329 ****       217.7500  17.0000  18.5000 Du        
   1330 ****       217.7500  17.0000  18.7500 Du        
   1331 ****       217.7500  17.0000  19.0000 Du        
   1332 ****       217.7500  17.0000  19.2500 Du        
   1333 ****       217.7500  17.2500  16.2500 Du        
   1334 ****       217.7500  17.2500  16.5000 Du        
   1335 ****       217.7500  17.2500  16.7500 Du        
   1336 ****       217.7500  17.2500  17.0000 Du        
   1337 ****       217.7500  17.2500  17.2500 Du        
   1338 ****       217.7500  17.2500  17.5000 Du        
   1339 ****       217.7500  17.2500  17.7500 Du        
   1340 ****       217.7500  17.2500  18.0000 Du        
   1341 ****       217.7500  17.2500  18.2500 Du        
   1342 ****       217.7500  17.2500  18.5000 Du        
   1343 ****       217.7500  17.2500  18.7500 Du        
   1344 ****       217.7500  17.2500  19.0000 Du        
   1345 ****       217.7500  17.5000  16.0000 Du        
   1346 ****       217.7500  17.5000  16.2500 Du        
   1347 ****       217.7500  17.5000  16.5000 Du        
   1348 ****       217.7500  17.5000  16.7500 Du        
   1349 ****       217.7500  17.5000  17.0000 Du        
   1350 ****       217.7500  17.5000  17.2500 Du        
   1351 ****       217.7500  17.5000  17.5000 Du        
   1352 ****       217.7500  17.5000  17.7500 Du        
   1353 ****       217.7500  17.5000  18.0000 Du        
   1354 ****       217.7500  17.5000  18.2500 Du        
   1355 ****       217.7500  17.5000  18.5000 Du        
   1356 ****       217.7500  17.5000  18.7500 Du        
   1357 ****       217.7500  17.7500  16.0000 Du        
   1358 ****       217.7500  17.7500  16.2500 Du        
   1359 ****       217.7500  17.7500  16.5000 Du        
   1360 ****       217.7500  17.7500  16.7500 Du        
   1361 ****       217.7500  17.7500  17.0000 Du        
   1362 ****       217.7500  17.7500  17.2500 Du        
   1363 ****       217.7500  17.7500  17.5000 Du        
   1364 ****       217.7500  17.7500  17.7500 Du        
   1365 ****       217.7500  17.7500  18.0000 Du        
   1366 ****       217.7500  17.7500  18.2500 Du        
   1367 ****       217.7500  17.7500  25.5000 Du        
   1368 ****       217.7500  17.7500  25.7500 Du        
   1369 ****       217.7500  18.0000  15.7500 Du        
   1370 ****       217.7500  18.0000  16.0000 Du        
   1371 ****       217.7500  18.0000  16.2500 Du        
   1372 ****       217.7500  18.0000  16.5000 Du        
   1373 ****       217.7500  18.0000  16.7500 Du        
   1374 ****       217.7500  18.0000  17.0000 Du        
   1375 ****       217.7500  18.0000  17.2500 Du        
   1376 ****       217.7500  18.0000  17.5000 Du        
   1377 ****       217.7500  18.0000  17.7500 Du        
   1378 ****       217.7500  18.0000  18.0000 Du        
   1379 ****       217.7500  18.0000  25.0000 Du        
   1380 ****       217.7500  18.0000  25.2500 Du        
   1381 ****       217.7500  18.0000  25.5000 Du        
   1382 ****       217.7500  18.0000  25.7500 Du        
   1383 ****       217.7500  18.2500  15.7500 Du        
   1384 ****       217.7500  18.2500  16.0000 Du        
   1385 ****       217.7500  18.2500  16.2500 Du        
   1386 ****       217.7500  18.2500  16.5000 Du        
   1387 ****       217.7500  18.2500  16.7500 Du        
   1388 ****       217.7500  18.2500  17.0000 Du        
   1389 ****       217.7500  18.2500  17.2500 Du        
   1390 ****       217.7500  18.2500  17.5000 Du        
   1391 ****       217.7500  18.2500  24.7500 Du        
   1392 ****       217.7500  18.2500  25.0000 Du        
   1393 ****       217.7500  18.2500  25.2500 Du        
   1394 ****       217.7500  18.2500  25.5000 Du        
   1395 ****       217.7500  18.2500  25.7500 Du        
   1396 ****       217.7500  18.5000  15.7500 Du        
   1397 ****       217.7500  18.5000  16.0000 Du        
   1398 ****       217.7500  18.5000  16.2500 Du        
   1399 ****       217.7500  18.5000  16.5000 Du        
   1400 ****       217.7500  18.5000  16.7500 Du        
   1401 ****       217.7500  18.5000  17.0000 Du        
   1402 ****       217.7500  18.5000  17.2500 Du        
   1403 ****       217.7500  18.5000  24.7500 Du        
   1404 ****       217.7500  18.5000  25.0000 Du        
   1405 ****       217.7500  18.5000  25.2500 Du        
   1406 ****       217.7500  18.5000  25.5000 Du        
   1407 ****       217.7500  18.5000  25.7500 Du        
   1408 ****       217.7500  18.7500  15.7500 Du        
   1409 ****       217.7500  18.7500  16.0000 Du        
   1410 ****       217.7500  18.7500  16.2500 Du        
   1411 ****       217.7500  18.7500  16.5000 Du        
   1412 ****       217.7500  18.7500  16.7500 Du        
   1413 ****       217.7500  18.7500  17.0000 Du        
   1414 ****       217.7500  18.7500  24.7500 Du        
   1415 ****       217.7500  18.7500  25.0000 Du        
   1416 ****       217.7500  18.7500  25.2500 Du        
   1417 ****       217.7500  18.7500  25.5000 Du        
   1418 ****       217.7500  18.7500  25.7500 Du        
   1419 ****       217.7500  19.0000  16.0000 Du        
   1420 ****       217.7500  19.0000  16.2500 Du        
   1421 ****       217.7500  19.0000  16.5000 Du        
   1422 ****       217.7500  19.0000  16.7500 Du        
   1423 ****       217.7500  19.0000  17.0000 Du        
   1424 ****       217.7500  19.0000  24.7500 Du        
   1425 ****       217.7500  19.0000  25.0000 Du        
   1426 ****       217.7500  19.0000  25.2500 Du        
   1427 ****       217.7500  19.0000  25.5000 Du        
   1428 ****       217.7500  19.0000  25.7500 Du        
   1429 ****       217.7500  19.2500  16.0000 Du        
   1430 ****       217.7500  19.2500  16.2500 Du        
   1431 ****       217.7500  19.2500  16.5000 Du        
   1432 ****       217.7500  19.2500  16.7500 Du        
   1433 ****       217.7500  19.2500  24.7500 Du        
   1434 ****       217.7500  19.2500  25.0000 Du        
   1435 ****       217.7500  19.2500  25.2500 Du        
   1436 ****       217.7500  19.2500  25.5000 Du        
   1437 ****       217.7500  19.2500  25.7500 Du        
   1438 ****       217.7500  19.5000  16.2500 Du        
   1439 ****       217.7500  19.5000  16.5000 Du        
   1440 ****       217.7500  19.5000  16.7500 Du        
   1441 ****       217.7500  19.5000  25.0000 Du        
   1442 ****       217.7500  19.5000  25.2500 Du        
   1443 ****       217.7500  19.5000  25.5000 Du        
   1444 ****       217.7500  19.5000  25.7500 Du        
   1445 ****       217.7500  19.7500  16.2500 Du        
   1446 ****       217.7500  19.7500  16.5000 Du        
   1447 ****       217.7500  19.7500  16.7500 Du        
   1448 ****       217.7500  19.7500  25.0000 Du        
   1449 ****       217.7500  19.7500  25.2500 Du        
   1450 ****       217.7500  19.7500  25.5000 Du        
   1451 ****       217.7500  19.7500  25.7500 Du        
   1452 ****       217.7500  20.0000  16.5000 Du        
   1453 ****       217.7500  20.0000  25.0000 Du        
   1454 ****       217.7500  20.0000  25.2500 Du        
   1455 ****       217.7500  20.0000  25.5000 Du        
   1456 ****       217.7500  20.0000  25.7500 Du        
   1457 ****       217.7500  20.2500  25.0000 Du        
   1458 ****       217.7500  20.2500  25.2500 Du        
   1459 ****       217.7500  20.2500  25.5000 Du        
   1460 ****       217.7500  20.2500  25.7500 Du        
   1461 ****       217.7500  20.5000  25.0000 Du        
   1462 ****       217.7500  20.5000  25.2500 Du        
   1463 ****       217.7500  20.5000  25.5000 Du        
   1464 ****       217.7500  20.5000  25.7500 Du        
   1465 ****       217.7500  20.7500  25.0000 Du        
   1466 ****       217.7500  20.7500  25.2500 Du        
   1467 ****       217.7500  20.7500  25.5000 Du        
   1468 ****       217.7500  20.7500  25.7500 Du        
   1469 ****       217.7500  21.0000  25.0000 Du        
   1470 ****       217.7500  21.0000  25.2500 Du        
   1471 ****       217.7500  21.0000  25.5000 Du        
   1472 ****       217.7500  21.0000  25.7500 Du        
   1473 ****       217.7500  21.2500  25.0000 Du        
   1474 ****       217.7500  21.2500  25.2500 Du        
   1475 ****       217.7500  21.2500  25.5000 Du        
   1476 ****       217.7500  21.2500  25.7500 Du        
   1477 ****       217.7500  21.5000  25.2500 Du        
   1478 ****       217.7500  21.5000  25.5000 Du        
   1479 ****       217.7500  21.5000  25.7500 Du        
   1480 ****       218.0000  15.7500  18.5000 Du        
   1481 ****       218.0000  15.7500  18.7500 Du        
   1482 ****       218.0000  15.7500  19.0000 Du        
   1483 ****       218.0000  15.7500  19.2500 Du        
   1484 ****       218.0000  16.0000  17.5000 Du        
   1485 ****       218.0000  16.0000  17.7500 Du        
   1486 ****       218.0000  16.0000  18.0000 Du        
   1487 ****       218.0000  16.0000  18.2500 Du        
   1488 ****       218.0000  16.0000  18.5000 Du        
   1489 ****       218.0000  16.0000  18.7500 Du        
   1490 ****       218.0000  16.0000  19.0000 Du        
   1491 ****       218.0000  16.0000  19.2500 Du        
   1492 ****       218.0000  16.0000  19.5000 Du        
   1493 ****       218.0000  16.0000  19.7500 Du        
   1494 ****       218.0000  16.2500  17.0000 Du        
   1495 ****       218.0000  16.2500  17.2500 Du        
   1496 ****       218.0000  16.2500  17.5000 Du        
   1497 ****       218.0000  16.2500  17.7500 Du        
   1498 ****       218.0000  16.2500  18.0000 Du        
   1499 ****       218.0000  16.2500  18.2500 Du        
   1500 ****       218.0000  16.2500  18.5000 Du        
   1501 ****       218.0000  16.2500  18.7500 Du        
   1502 ****       218.0000  16.2500  19.0000 Du        
   1503 ****       218.0000  16.2500  19.2500 Du        
   1504 ****       218.0000  16.2500  19.5000 Du        
   1505 ****       218.0000  16.2500  19.7500 Du        
   1506 ****       218.0000  16.5000  16.7500 Du        
   1507 ****       218.0000  16.5000  17.0000 Du        
   1508 ****       218.0000  16.5000  17.2500 Du        
   1509 ****       218.0000  16.5000  17.5000 Du        
   1510 ****       218.0000  16.5000  17.7500 Du        
   1511 ****       218.0000  16.5000  18.0000 Du        
   1512 ****       218.0000  16.5000  18.2500 Du        
   1513 ****       218.0000  16.5000  18.5000 Du        
   1514 ****       218.0000  16.5000  18.7500 Du        
   1515 ****       218.0000  16.5000  19.0000 Du        
   1516 ****       218.0000  16.5000  19.2500 Du        
   1517 ****       218.0000  16.5000  19.5000 Du        
   1518 ****       218.0000  16.5000  19.7500 Du        
   1519 ****       218.0000  16.7500  16.5000 Du        
   1520 ****       218.0000  16.7500  16.7500 Du        
   1521 ****       218.0000  16.7500  17.0000 Du        
   1522 ****       218.0000  16.7500  17.2500 Du        
   1523 ****       218.0000  16.7500  17.5000 Du        
   1524 ****       218.0000  16.7500  17.7500 Du        
   1525 ****       218.0000  16.7500  18.0000 Du        
   1526 ****       218.0000  16.7500  18.2500 Du        
   1527 ****       218.0000  16.7500  18.5000 Du        
   1528 ****       218.0000  16.7500  18.7500 Du        
   1529 ****       218.0000  16.7500  19.0000 Du        
   1530 ****       218.0000  16.7500  19.2500 Du        
   1531 ****       218.0000  16.7500  19.5000 Du        
   1532 ****       218.0000  17.0000  16.2500 Du        
   1533 ****       218.0000  17.0000  16.5000 Du        
   1534 ****       218.0000  17.0000  16.7500 Du        
   1535 ****       218.0000  17.0000  17.0000 Du        
   1536 ****       218.0000  17.0000  17.2500 Du        
   1537 ****       218.0000  17.0000  17.5000 Du        
   1538 ****       218.0000  17.0000  17.7500 Du        
   1539 ****       218.0000  17.0000  18.0000 Du        
   1540 ****       218.0000  17.0000  18.2500 Du        
   1541 ****       218.0000  17.0000  18.5000 Du        
   1542 ****       218.0000  17.0000  18.7500 Du        
   1543 ****       218.0000  17.0000  19.0000 Du        
   1544 ****       218.0000  17.0000  19.2500 Du        
   1545 ****       218.0000  17.2500  16.2500 Du        
   1546 ****       218.0000  17.2500  16.5000 Du        
   1547 ****       218.0000  17.2500  16.7500 Du        
   1548 ****       218.0000  17.2500  17.0000 Du        
   1549 ****       218.0000  17.2500  17.2500 Du        
   1550 ****       218.0000  17.2500  17.5000 Du        
   1551 ****       218.0000  17.2500  17.7500 Du        
   1552 ****       218.0000  17.2500  18.0000 Du        
   1553 ****       218.0000  17.2500  18.2500 Du        
   1554 ****       218.0000  17.2500  18.5000 Du        
   1555 ****       218.0000  17.2500  18.7500 Du        
   1556 ****       218.0000  17.5000  16.0000 Du        
   1557 ****       218.0000  17.5000  16.2500 Du        
   1558 ****       218.0000  17.5000  16.5000 Du        
   1559 ****       218.0000  17.5000  16.7500 Du        
   1560 ****       218.0000  17.5000  17.0000 Du        
   1561 ****       218.0000  17.5000  17.2500 Du        
   1562 ****       218.0000  17.5000  17.5000 Du        
   1563 ****       218.0000  17.5000  17.7500 Du        
   1564 ****       218.0000  17.5000  18.0000 Du        
   1565 ****       218.0000  17.5000  18.2500 Du        
   1566 ****       218.0000  17.5000  18.5000 Du        
   1567 ****       218.0000  17.7500  15.7500 Du        
   1568 ****       218.0000  17.7500  16.0000 Du        
   1569 ****       218.0000  17.7500  16.2500 Du        
   1570 ****       218.0000  17.7500  16.5000 Du        
   1571 ****       218.0000  17.7500  16.7500 Du        
   1572 ****       218.0000  17.7500  17.0000 Du        
   1573 ****       218.0000  17.7500  17.2500 Du        
   1574 ****       218.0000  17.7500  17.5000 Du        
   1575 ****       218.0000  17.7500  17.7500 Du        
   1576 ****       218.0000  17.7500  18.0000 Du        
   1577 ****       218.0000  17.7500  18.2500 Du        
   1578 ****       218.0000  17.7500  25.7500 Du        
   1579 ****       218.0000  18.0000  15.7500 Du        
   1580 ****       218.0000  18.0000  16.0000 Du        
   1581 ****       218.0000  18.0000  16.2500 Du        
   1582 ****       218.0000  18.0000  16.5000 Du        
   1583 ****       218.0000  18.0000  16.7500 Du        
   1584 ****       218.0000  18.0000  17.0000 Du        
   1585 ****       218.0000  18.0000  17.2500 Du        
   1586 ****       218.0000  18.0000  17.5000 Du        
   1587 ****       218.0000  18.0000  17.7500 Du        
   1588 ****       218.0000  18.0000  18.0000 Du        
   1589 ****       218.0000  18.0000  25.2500 Du        
   1590 ****       218.0000  18.0000  25.5000 Du        
   1591 ****       218.0000  18.0000  25.7500 Du        
   1592 ****       218.0000  18.2500  15.7500 Du        
   1593 ****       218.0000  18.2500  16.0000 Du        
   1594 ****       218.0000  18.2500  16.2500 Du        
   1595 ****       218.0000  18.2500  16.5000 Du        
   1596 ****       218.0000  18.2500  16.7500 Du        
   1597 ****       218.0000  18.2500  17.0000 Du        
   1598 ****       218.0000  18.2500  17.2500 Du        
   1599 ****       218.0000  18.2500  17.5000 Du        
   1600 ****       218.0000  18.2500  17.7500 Du        
   1601 ****       218.0000  18.2500  18.0000 Du        
   1602 ****       218.0000  18.2500  25.0000 Du        
   1603 ****       218.0000  18.2500  25.2500 Du        
   1604 ****       218.0000  18.2500  25.5000 Du        
   1605 ****       218.0000  18.2500  25.7500 Du        
   1606 ****       218.0000  18.5000  16.0000 Du        
   1607 ****       218.0000  18.5000  16.2500 Du        
   1608 ****       218.0000  18.5000  16.5000 Du        
   1609 ****       218.0000  18.5000  16.7500 Du        
   1610 ****       218.0000  18.5000  17.0000 Du        
   1611 ****       218.0000  18.5000  17.2500 Du        
   1612 ****       218.0000  18.5000  17.5000 Du        
   1613 ****       218.0000  18.5000  17.7500 Du        
   1614 ****       218.0000  18.5000  24.7500 Du        
   1615 ****       218.0000  18.5000  25.0000 Du        
   1616 ****       218.0000  18.5000  25.2500 Du        
   1617 ****       218.0000  18.5000  25.5000 Du        
   1618 ****       218.0000  18.5000  25.7500 Du        
   1619 ****       218.0000  18.7500  16.0000 Du        
   1620 ****       218.0000  18.7500  16.2500 Du        
   1621 ****       218.0000  18.7500  16.5000 Du        
   1622 ****       218.0000  18.7500  16.7500 Du        
   1623 ****       218.0000  18.7500  17.0000 Du        
   1624 ****       218.0000  18.7500  17.2500 Du        
   1625 ****       218.0000  18.7500  17.5000 Du        
   1626 ****       218.0000  18.7500  24.7500 Du        
   1627 ****       218.0000  18.7500  25.0000 Du        
   1628 ****       218.0000  18.7500  25.2500 Du        
   1629 ****       218.0000  18.7500  25.5000 Du        
   1630 ****       218.0000  18.7500  25.7500 Du        
   1631 ****       218.0000  19.0000  16.0000 Du        
   1632 ****       218.0000  19.0000  16.2500 Du        
   1633 ****       218.0000  19.0000  16.5000 Du        
   1634 ****       218.0000  19.0000  16.7500 Du        
   1635 ****       218.0000  19.0000  17.0000 Du        
   1636 ****       218.0000  19.0000  17.2500 Du        
   1637 ****       218.0000  19.0000  24.7500 Du        
   1638 ****       218.0000  19.0000  25.0000 Du        
   1639 ****       218.0000  19.0000  25.2500 Du        
   1640 ****       218.0000  19.0000  25.5000 Du        
   1641 ****       218.0000  19.0000  25.7500 Du        
   1642 ****       218.0000  19.2500  16.2500 Du        
   1643 ****       218.0000  19.2500  16.5000 Du        
   1644 ****       218.0000  19.2500  16.7500 Du        
   1645 ****       218.0000  19.2500  17.0000 Du        
   1646 ****       218.0000  19.2500  17.2500 Du        
   1647 ****       218.0000  19.2500  25.0000 Du        
   1648 ****       218.0000  19.2500  25.2500 Du        
   1649 ****       218.0000  19.2500  25.5000 Du        
   1650 ****       218.0000  19.2500  25.7500 Du        
   1651 ****       218.0000  19.5000  16.2500 Du        
   1652 ****       218.0000  19.5000  16.5000 Du        
   1653 ****       218.0000  19.5000  16.7500 Du        
   1654 ****       218.0000  19.5000  17.0000 Du        
   1655 ****       218.0000  19.5000  25.0000 Du        
   1656 ****       218.0000  19.5000  25.2500 Du        
   1657 ****       218.0000  19.5000  25.5000 Du        
   1658 ****       218.0000  19.5000  25.7500 Du        
   1659 ****       218.0000  19.7500  16.2500 Du        
   1660 ****       218.0000  19.7500  16.5000 Du        
   1661 ****       218.0000  19.7500  16.7500 Du        
   1662 ****       218.0000  19.7500  17.0000 Du        
   1663 ****       218.0000  19.7500  25.0000 Du        
   1664 ****       218.0000  19.7500  25.2500 Du        
   1665 ****       218.0000  19.7500  25.5000 Du        
   1666 ****       218.0000  19.7500  25.7500 Du        
   1667 ****       218.0000  20.0000  16.5000 Du        
   1668 ****       218.0000  20.0000  16.7500 Du        
   1669 ****       218.0000  20.0000  25.0000 Du        
   1670 ****       218.0000  20.0000  25.2500 Du        
   1671 ****       218.0000  20.0000  25.5000 Du        
   1672 ****       218.0000  20.0000  25.7500 Du        
   1673 ****       218.0000  20.2500  16.7500 Du        
   1674 ****       218.0000  20.2500  25.0000 Du        
   1675 ****       218.0000  20.2500  25.2500 Du        
   1676 ****       218.0000  20.2500  25.5000 Du        
   1677 ****       218.0000  20.2500  25.7500 Du        
   1678 ****       218.0000  20.5000  25.0000 Du        
   1679 ****       218.0000  20.5000  25.2500 Du        
   1680 ****       218.0000  20.5000  25.5000 Du        
   1681 ****       218.0000  20.5000  25.7500 Du        
   1682 ****       218.0000  20.7500  25.0000 Du        
   1683 ****       218.0000  20.7500  25.2500 Du        
   1684 ****       218.0000  20.7500  25.5000 Du        
   1685 ****       218.0000  20.7500  25.7500 Du        
   1686 ****       218.0000  21.0000  25.0000 Du        
   1687 ****       218.0000  21.0000  25.2500 Du        
   1688 ****       218.0000  21.0000  25.5000 Du        
   1689 ****       218.0000  21.0000  25.7500 Du        
   1690 ****       218.0000  21.2500  25.2500 Du        
   1691 ****       218.0000  21.2500  25.5000 Du        
   1692 ****       218.0000  21.2500  25.7500 Du        
   1693 ****       218.0000  21.5000  25.2500 Du        
   1694 ****       218.0000  21.5000  25.5000 Du        
   1695 ****       218.0000  21.5000  25.7500 Du        
   1696 ****       218.2500  15.7500  18.7500 Du        
   1697 ****       218.2500  15.7500  19.0000 Du        
   1698 ****       218.2500  16.0000  17.7500 Du        
   1699 ****       218.2500  16.0000  18.0000 Du        
   1700 ****       218.2500  16.0000  18.2500 Du        
   1701 ****       218.2500  16.0000  18.5000 Du        
   1702 ****       218.2500  16.0000  18.7500 Du        
   1703 ****       218.2500  16.0000  19.0000 Du        
   1704 ****       218.2500  16.0000  19.2500 Du        
   1705 ****       218.2500  16.2500  17.2500 Du        
   1706 ****       218.2500  16.2500  17.5000 Du        
   1707 ****       218.2500  16.2500  17.7500 Du        
   1708 ****       218.2500  16.2500  18.0000 Du        
   1709 ****       218.2500  16.2500  18.2500 Du        
   1710 ****       218.2500  16.2500  18.5000 Du        
   1711 ****       218.2500  16.2500  18.7500 Du        
   1712 ****       218.2500  16.2500  19.0000 Du        
   1713 ****       218.2500  16.2500  19.2500 Du        
   1714 ****       218.2500  16.5000  16.7500 Du        
   1715 ****       218.2500  16.5000  17.0000 Du        
   1716 ****       218.2500  16.5000  17.2500 Du        
   1717 ****       218.2500  16.5000  17.5000 Du        
   1718 ****       218.2500  16.5000  17.7500 Du        
   1719 ****       218.2500  16.5000  18.0000 Du        
   1720 ****       218.2500  16.5000  18.2500 Du        
   1721 ****       218.2500  16.5000  18.5000 Du        
   1722 ****       218.2500  16.5000  18.7500 Du        
   1723 ****       218.2500  16.5000  19.0000 Du        
   1724 ****       218.2500  16.5000  19.2500 Du        
   1725 ****       218.2500  16.7500  16.5000 Du        
   1726 ****       218.2500  16.7500  16.7500 Du        
   1727 ****       218.2500  16.7500  17.0000 Du        
   1728 ****       218.2500  16.7500  17.2500 Du        
   1729 ****       218.2500  16.7500  17.5000 Du        
   1730 ****       218.2500  16.7500  17.7500 Du        
   1731 ****       218.2500  16.7500  18.0000 Du        
   1732 ****       218.2500  16.7500  18.2500 Du        
   1733 ****       218.2500  16.7500  18.5000 Du        
   1734 ****       218.2500  16.7500  18.7500 Du        
   1735 ****       218.2500  16.7500  19.0000 Du        
   1736 ****       218.2500  16.7500  19.2500 Du        
   1737 ****       218.2500  17.0000  16.2500 Du        
   1738 ****       218.2500  17.0000  16.5000 Du        
   1739 ****       218.2500  17.0000  16.7500 Du        
   1740 ****       218.2500  17.0000  17.0000 Du        
   1741 ****       218.2500  17.0000  17.2500 Du        
   1742 ****       218.2500  17.0000  17.5000 Du        
   1743 ****       218.2500  17.0000  17.7500 Du        
   1744 ****       218.2500  17.0000  18.0000 Du        
   1745 ****       218.2500  17.0000  18.2500 Du        
   1746 ****       218.2500  17.0000  18.5000 Du        
   1747 ****       218.2500  17.0000  18.7500 Du        
   1748 ****       218.2500  17.0000  19.0000 Du        
   1749 ****       218.2500  17.2500  16.0000 Du        
   1750 ****       218.2500  17.2500  16.2500 Du        
   1751 ****       218.2500  17.2500  16.5000 Du        
   1752 ****       218.2500  17.2500  16.7500 Du        
   1753 ****       218.2500  17.2500  17.0000 Du        
   1754 ****       218.2500  17.2500  17.2500 Du        
   1755 ****       218.2500  17.2500  17.5000 Du        
   1756 ****       218.2500  17.2500  17.7500 Du        
   1757 ****       218.2500  17.2500  18.0000 Du        
   1758 ****       218.2500  17.2500  18.2500 Du        
   1759 ****       218.2500  17.2500  18.5000 Du        
   1760 ****       218.2500  17.2500  18.7500 Du        
   1761 ****       218.2500  17.5000  16.0000 Du        
   1762 ****       218.2500  17.5000  16.2500 Du        
   1763 ****       218.2500  17.5000  16.5000 Du        
   1764 ****       218.2500  17.5000  16.7500 Du        
   1765 ****       218.2500  17.5000  17.0000 Du        
   1766 ****       218.2500  17.5000  17.2500 Du        
   1767 ****       218.2500  17.5000  17.5000 Du        
   1768 ****       218.2500  17.5000  17.7500 Du        
   1769 ****       218.2500  17.5000  18.0000 Du        
   1770 ****       218.2500  17.5000  18.2500 Du        
   1771 ****       218.2500  17.5000  18.5000 Du        
   1772 ****       218.2500  17.7500  15.7500 Du        
   1773 ****       218.2500  17.7500  16.0000 Du        
   1774 ****       218.2500  17.7500  16.2500 Du        
   1775 ****       218.2500  17.7500  16.5000 Du        
   1776 ****       218.2500  17.7500  16.7500 Du        
   1777 ****       218.2500  17.7500  17.0000 Du        
   1778 ****       218.2500  17.7500  17.2500 Du        
   1779 ****       218.2500  17.7500  17.5000 Du        
   1780 ****       218.2500  17.7500  17.7500 Du        
   1781 ****       218.2500  17.7500  18.0000 Du        
   1782 ****       218.2500  17.7500  18.2500 Du        
   1783 ****       218.2500  18.0000  15.7500 Du        
   1784 ****       218.2500  18.0000  16.0000 Du        
   1785 ****       218.2500  18.0000  16.2500 Du        
   1786 ****       218.2500  18.0000  16.5000 Du        
   1787 ****       218.2500  18.0000  16.7500 Du        
   1788 ****       218.2500  18.0000  17.0000 Du        
   1789 ****       218.2500  18.0000  17.2500 Du        
   1790 ****       218.2500  18.0000  17.5000 Du        
   1791 ****       218.2500  18.0000  17.7500 Du        
   1792 ****       218.2500  18.0000  18.0000 Du        
   1793 ****       218.2500  18.0000  18.2500 Du        
   1794 ****       218.2500  18.0000  25.5000 Du        
   1795 ****       218.2500  18.0000  25.7500 Du        
   1796 ****       218.2500  18.2500  16.0000 Du        
   1797 ****       218.2500  18.2500  16.2500 Du        
   1798 ****       218.2500  18.2500  16.5000 Du        
   1799 ****       218.2500  18.2500  16.7500 Du        
   1800 ****       218.2500  18.2500  17.0000 Du        
   1801 ****       218.2500  18.2500  17.2500 Du        
   1802 ****       218.2500  18.2500  17.5000 Du        
   1803 ****       218.2500  18.2500  17.7500 Du        
   1804 ****       218.2500  18.2500  18.0000 Du        
   1805 ****       218.2500  18.2500  25.0000 Du        
   1806 ****       218.2500  18.2500  25.2500 Du        
   1807 ****       218.2500  18.2500  25.5000 Du        
   1808 ****       218.2500  18.2500  25.7500 Du        
   1809 ****       218.2500  18.5000  16.0000 Du        
   1810 ****       218.2500  18.5000  16.2500 Du        
   1811 ****       218.2500  18.5000  16.5000 Du        
   1812 ****       218.2500  18.5000  16.7500 Du        
   1813 ****       218.2500  18.5000  17.0000 Du        
   1814 ****       218.2500  18.5000  17.2500 Du        
   1815 ****       218.2500  18.5000  17.5000 Du        
   1816 ****       218.2500  18.5000  17.7500 Du        
   1817 ****       218.2500  18.5000  25.0000 Du        
   1818 ****       218.2500  18.5000  25.2500 Du        
   1819 ****       218.2500  18.5000  25.5000 Du        
   1820 ****       218.2500  18.5000  25.7500 Du        
   1821 ****       218.2500  18.7500  16.0000 Du        
   1822 ****       218.2500  18.7500  16.2500 Du        
   1823 ****       218.2500  18.7500  16.5000 Du        
   1824 ****       218.2500  18.7500  16.7500 Du        
   1825 ****       218.2500  18.7500  17.0000 Du        
   1826 ****       218.2500  18.7500  17.2500 Du        
   1827 ****       218.2500  18.7500  17.5000 Du        
   1828 ****       218.2500  18.7500  17.7500 Du        
   1829 ****       218.2500  18.7500  25.0000 Du        
   1830 ****       218.2500  18.7500  25.2500 Du        
   1831 ****       218.2500  18.7500  25.5000 Du        
   1832 ****       218.2500  18.7500  25.7500 Du        
   1833 ****       218.2500  19.0000  16.2500 Du        
   1834 ****       218.2500  19.0000  16.5000 Du        
   1835 ****       218.2500  19.0000  16.7500 Du        
   1836 ****       218.2500  19.0000  17.0000 Du        
   1837 ****       218.2500  19.0000  17.2500 Du        
   1838 ****       218.2500  19.0000  17.5000 Du        
   1839 ****       218.2500  19.0000  25.0000 Du        
   1840 ****       218.2500  19.0000  25.2500 Du        
   1841 ****       218.2500  19.0000  25.5000 Du        
   1842 ****       218.2500  19.0000  25.7500 Du        
   1843 ****       218.2500  19.2500  16.2500 Du        
   1844 ****       218.2500  19.2500  16.5000 Du        
   1845 ****       218.2500  19.2500  16.7500 Du        
   1846 ****       218.2500  19.2500  17.0000 Du        
   1847 ****       218.2500  19.2500  17.2500 Du        
   1848 ****       218.2500  19.2500  25.0000 Du        
   1849 ****       218.2500  19.2500  25.2500 Du        
   1850 ****       218.2500  19.2500  25.5000 Du        
   1851 ****       218.2500  19.2500  25.7500 Du        
   1852 ****       218.2500  19.5000  16.2500 Du        
   1853 ****       218.2500  19.5000  16.5000 Du        
   1854 ****       218.2500  19.5000  16.7500 Du        
   1855 ****       218.2500  19.5000  17.0000 Du        
   1856 ****       218.2500  19.5000  17.2500 Du        
   1857 ****       218.2500  19.5000  25.2500 Du        
   1858 ****       218.2500  19.5000  25.5000 Du        
   1859 ****       218.2500  19.5000  25.7500 Du        
   1860 ****       218.2500  19.7500  16.5000 Du        
   1861 ****       218.2500  19.7500  16.7500 Du        
   1862 ****       218.2500  19.7500  17.0000 Du        
   1863 ****       218.2500  19.7500  25.2500 Du        
   1864 ****       218.2500  19.7500  25.5000 Du        
   1865 ****       218.2500  19.7500  25.7500 Du        
   1866 ****       218.2500  20.0000  16.5000 Du        
   1867 ****       218.2500  20.0000  16.7500 Du        
   1868 ****       218.2500  20.0000  17.0000 Du        
   1869 ****       218.2500  20.0000  25.2500 Du        
   1870 ****       218.2500  20.0000  25.5000 Du        
   1871 ****       218.2500  20.0000  25.7500 Du        
   1872 ****       218.2500  20.2500  16.7500 Du        
   1873 ****       218.2500  20.2500  17.0000 Du        
   1874 ****       218.2500  20.2500  25.2500 Du        
   1875 ****       218.2500  20.2500  25.5000 Du        
   1876 ****       218.2500  20.2500  25.7500 Du        
   1877 ****       218.2500  20.5000  25.2500 Du        
   1878 ****       218.2500  20.5000  25.5000 Du        
   1879 ****       218.2500  20.5000  25.7500 Du        
   1880 ****       218.2500  20.7500  25.2500 Du        
   1881 ****       218.2500  20.7500  25.5000 Du        
   1882 ****       218.2500  20.7500  25.7500 Du        
   1883 ****       218.2500  21.0000  25.2500 Du        
   1884 ****       218.2500  21.0000  25.5000 Du        
   1885 ****       218.2500  21.0000  25.7500 Du        
   1886 ****       218.2500  21.2500  25.2500 Du        
   1887 ****       218.2500  21.2500  25.5000 Du        
   1888 ****       218.2500  21.2500  25.7500 Du        
   1889 ****       218.2500  21.5000  25.2500 Du        
   1890 ****       218.2500  21.5000  25.5000 Du        
   1891 ****       218.2500  21.5000  25.7500 Du        
   1892 ****       218.5000  13.0000   9.2500 Du        
   1893 ****       218.5000  13.2500   9.2500 Du        
   1894 ****       218.5000  16.2500  18.2500 Du        
   1895 ****       218.5000  16.5000  17.0000 Du        
   1896 ****       218.5000  16.5000  17.2500 Du        
   1897 ****       218.5000  16.5000  17.5000 Du        
   1898 ****       218.5000  16.5000  17.7500 Du        
   1899 ****       218.5000  16.5000  18.0000 Du        
   1900 ****       218.5000  16.5000  18.2500 Du        
   1901 ****       218.5000  16.5000  18.5000 Du        
   1902 ****       218.5000  16.5000  18.7500 Du        
   1903 ****       218.5000  16.7500  16.7500 Du        
   1904 ****       218.5000  16.7500  17.0000 Du        
   1905 ****       218.5000  16.7500  17.2500 Du        
   1906 ****       218.5000  16.7500  17.5000 Du        
   1907 ****       218.5000  16.7500  17.7500 Du        
   1908 ****       218.5000  16.7500  18.0000 Du        
   1909 ****       218.5000  16.7500  18.2500 Du        
   1910 ****       218.5000  16.7500  18.5000 Du        
   1911 ****       218.5000  16.7500  18.7500 Du        
   1912 ****       218.5000  17.0000  16.5000 Du        
   1913 ****       218.5000  17.0000  16.7500 Du        
   1914 ****       218.5000  17.0000  17.0000 Du        
   1915 ****       218.5000  17.0000  17.2500 Du        
   1916 ****       218.5000  17.0000  17.5000 Du        
   1917 ****       218.5000  17.0000  17.7500 Du        
   1918 ****       218.5000  17.0000  18.0000 Du        
   1919 ****       218.5000  17.0000  18.2500 Du        
   1920 ****       218.5000  17.0000  18.5000 Du        
   1921 ****       218.5000  17.0000  18.7500 Du        
   1922 ****       218.5000  17.2500  16.5000 Du        
   1923 ****       218.5000  17.2500  16.7500 Du        
   1924 ****       218.5000  17.2500  17.0000 Du        
   1925 ****       218.5000  17.2500  17.2500 Du        
   1926 ****       218.5000  17.2500  17.5000 Du        
   1927 ****       218.5000  17.2500  17.7500 Du        
   1928 ****       218.5000  17.2500  18.0000 Du        
   1929 ****       218.5000  17.2500  18.2500 Du        
   1930 ****       218.5000  17.2500  18.5000 Du        
   1931 ****       218.5000  17.5000  16.0000 Du        
   1932 ****       218.5000  17.5000  16.2500 Du        
   1933 ****       218.5000  17.5000  16.5000 Du        
   1934 ****       218.5000  17.5000  16.7500 Du        
   1935 ****       218.5000  17.5000  17.0000 Du        
   1936 ****       218.5000  17.5000  17.2500 Du        
   1937 ****       218.5000  17.5000  17.5000 Du        
   1938 ****       218.5000  17.5000  17.7500 Du        
   1939 ****       218.5000  17.5000  18.0000 Du        
   1940 ****       218.5000  17.5000  18.2500 Du        
   1941 ****       218.5000  17.7500  16.0000 Du        
   1942 ****       218.5000  17.7500  16.2500 Du        
   1943 ****       218.5000  17.7500  16.5000 Du        
   1944 ****       218.5000  17.7500  16.7500 Du        
   1945 ****       218.5000  17.7500  17.0000 Du        
   1946 ****       218.5000  17.7500  17.2500 Du        
   1947 ****       218.5000  17.7500  17.5000 Du        
   1948 ****       218.5000  17.7500  17.7500 Du        
   1949 ****       218.5000  17.7500  18.0000 Du        
   1950 ****       218.5000  17.7500  18.2500 Du        
   1951 ****       218.5000  18.0000  16.0000 Du        
   1952 ****       218.5000  18.0000  16.2500 Du        
   1953 ****       218.5000  18.0000  16.5000 Du        
   1954 ****       218.5000  18.0000  16.7500 Du        
   1955 ****       218.5000  18.0000  17.0000 Du        
   1956 ****       218.5000  18.0000  17.2500 Du        
   1957 ****       218.5000  18.0000  17.5000 Du        
   1958 ****       218.5000  18.0000  17.7500 Du        
   1959 ****       218.5000  18.0000  18.0000 Du        
   1960 ****       218.5000  18.2500  16.2500 Du        
   1961 ****       218.5000  18.2500  16.5000 Du        
   1962 ****       218.5000  18.2500  16.7500 Du        
   1963 ****       218.5000  18.2500  17.0000 Du        
   1964 ****       218.5000  18.2500  17.2500 Du        
   1965 ****       218.5000  18.2500  17.5000 Du        
   1966 ****       218.5000  18.2500  17.7500 Du        
   1967 ****       218.5000  18.2500  18.0000 Du        
   1968 ****       218.5000  18.2500  25.2500 Du        
   1969 ****       218.5000  18.2500  25.5000 Du        
   1970 ****       218.5000  18.2500  25.7500 Du        
   1971 ****       218.5000  18.5000  16.2500 Du        
   1972 ****       218.5000  18.5000  16.5000 Du        
   1973 ****       218.5000  18.5000  16.7500 Du        
   1974 ****       218.5000  18.5000  17.0000 Du        
   1975 ****       218.5000  18.5000  17.2500 Du        
   1976 ****       218.5000  18.5000  17.5000 Du        
   1977 ****       218.5000  18.5000  17.7500 Du        
   1978 ****       218.5000  18.5000  25.0000 Du        
   1979 ****       218.5000  18.5000  25.2500 Du        
   1980 ****       218.5000  18.5000  25.5000 Du        
   1981 ****       218.5000  18.5000  25.7500 Du        
   1982 ****       218.5000  18.7500  16.2500 Du        
   1983 ****       218.5000  18.7500  16.5000 Du        
   1984 ****       218.5000  18.7500  16.7500 Du        
   1985 ****       218.5000  18.7500  17.0000 Du        
   1986 ****       218.5000  18.7500  17.2500 Du        
   1987 ****       218.5000  18.7500  17.5000 Du        
   1988 ****       218.5000  18.7500  25.0000 Du        
   1989 ****       218.5000  18.7500  25.2500 Du        
   1990 ****       218.5000  18.7500  25.5000 Du        
   1991 ****       218.5000  18.7500  25.7500 Du        
   1992 ****       218.5000  19.0000  16.2500 Du        
   1993 ****       218.5000  19.0000  16.5000 Du        
   1994 ****       218.5000  19.0000  16.7500 Du        
   1995 ****       218.5000  19.0000  17.0000 Du        
   1996 ****       218.5000  19.0000  17.2500 Du        
   1997 ****       218.5000  19.0000  17.5000 Du        
   1998 ****       218.5000  19.0000  25.2500 Du        
   1999 ****       218.5000  19.0000  25.5000 Du        
   2000 ****       218.5000  19.0000  25.7500 Du        
   2001 ****       218.5000  19.2500  16.5000 Du        
   2002 ****       218.5000  19.2500  16.7500 Du        
   2003 ****       218.5000  19.2500  17.0000 Du        
   2004 ****       218.5000  19.2500  17.2500 Du        
   2005 ****       218.5000  19.2500  25.2500 Du        
   2006 ****       218.5000  19.2500  25.5000 Du        
   2007 ****       218.5000  19.2500  25.7500 Du        
   2008 ****       218.5000  19.5000  16.5000 Du        
   2009 ****       218.5000  19.5000  16.7500 Du        
   2010 ****       218.5000  19.5000  17.0000 Du        
   2011 ****       218.5000  19.5000  25.2500 Du        
   2012 ****       218.5000  19.5000  25.5000 Du        
   2013 ****       218.5000  19.5000  25.7500 Du        
   2014 ****       218.5000  19.7500  16.5000 Du        
   2015 ****       218.5000  19.7500  16.7500 Du        
   2016 ****       218.5000  19.7500  17.0000 Du        
   2017 ****       218.5000  19.7500  25.5000 Du        
   2018 ****       218.5000  19.7500  25.7500 Du        
   2019 ****       218.5000  20.0000  16.7500 Du        
   2020 ****       218.5000  20.0000  17.0000 Du        
   2021 ****       218.5000  20.0000  25.5000 Du        
   2022 ****       218.5000  20.0000  25.7500 Du        
   2023 ****       218.5000  20.2500  16.7500 Du        
   2024 ****       218.5000  20.2500  25.5000 Du        
   2025 ****       218.5000  20.2500  25.7500 Du        
   2026 ****       218.5000  20.5000  25.5000 Du        
   2027 ****       218.5000  20.5000  25.7500 Du        
   2028 ****       218.5000  20.7500  25.2500 Du        
   2029 ****       218.5000  20.7500  25.5000 Du        
   2030 ****       218.5000  20.7500  25.7500 Du        
   2031 ****       218.5000  21.0000  25.2500 Du        
   2032 ****       218.5000  21.0000  25.5000 Du        
   2033 ****       218.5000  21.0000  25.7500 Du        
   2034 ****       218.5000  21.2500  25.2500 Du        
   2035 ****       218.5000  21.2500  25.5000 Du        
   2036 ****       218.5000  21.2500  25.7500 Du        
   2037 ****       218.5000  21.5000  25.2500 Du        
   2038 ****       218.5000  21.5000  25.5000 Du        
   2039 ****       218.5000  21.5000  25.7500 Du        
   2040 ****       218.7500  12.0000  10.2500 Du        
   2041 ****       218.7500  12.2500  10.0000 Du        
   2042 ****       218.7500  12.2500  10.2500 Du        
   2043 ****       218.7500  12.5000   9.7500 Du        
   2044 ****       218.7500  12.5000  10.0000 Du        
   2045 ****       218.7500  12.5000  10.2500 Du        
   2046 ****       218.7500  12.7500   9.2500 Du        
   2047 ****       218.7500  12.7500   9.5000 Du        
   2048 ****       218.7500  12.7500   9.7500 Du        
   2049 ****       218.7500  12.7500  10.0000 Du        
   2050 ****       218.7500  12.7500  10.2500 Du        
   2051 ****       218.7500  13.0000   9.0000 Du        
   2052 ****       218.7500  13.0000   9.2500 Du        
   2053 ****       218.7500  13.0000   9.5000 Du        
   2054 ****       218.7500  13.0000   9.7500 Du        
   2055 ****       218.7500  13.0000  10.0000 Du        
   2056 ****       218.7500  13.2500   9.0000 Du        
   2057 ****       218.7500  13.2500   9.2500 Du        
   2058 ****       218.7500  13.2500   9.5000 Du        
   2059 ****       218.7500  13.2500   9.7500 Du        
   2060 ****       218.7500  13.2500  10.0000 Du        
   2061 ****       218.7500  13.5000   9.0000 Du        
   2062 ****       218.7500  13.5000   9.2500 Du        
   2063 ****       218.7500  13.5000   9.5000 Du        
   2064 ****       218.7500  13.5000   9.7500 Du        
   2065 ****       218.7500  13.7500   9.0000 Du        
   2066 ****       218.7500  13.7500   9.2500 Du        
   2067 ****       218.7500  13.7500   9.5000 Du        
   2068 ****       218.7500  14.0000   9.2500 Du        
   2069 ****       218.7500  16.5000  17.0000 Du        
   2070 ****       218.7500  16.5000  17.2500 Du        
   2071 ****       218.7500  16.5000  17.5000 Du        
   2072 ****       218.7500  16.5000  17.7500 Du        
   2073 ****       218.7500  16.5000  18.0000 Du        
   2074 ****       218.7500  16.5000  18.2500 Du        
   2075 ****       218.7500  16.5000  18.5000 Du        
   2076 ****       218.7500  16.7500  16.5000 Du        
   2077 ****       218.7500  16.7500  16.7500 Du        
   2078 ****       218.7500  16.7500  17.0000 Du        
   2079 ****       218.7500  16.7500  17.2500 Du        
   2080 ****       218.7500  16.7500  17.5000 Du        
   2081 ****       218.7500  16.7500  17.7500 Du        
   2082 ****       218.7500  16.7500  18.0000 Du        
   2083 ****       218.7500  16.7500  18.2500 Du        
   2084 ****       218.7500  16.7500  18.5000 Du        
   2085 ****       218.7500  17.0000   8.2500 Du        
   2086 ****       218.7500  17.0000  16.5000 Du        
   2087 ****       218.7500  17.0000  16.7500 Du        
   2088 ****       218.7500  17.0000  17.0000 Du        
   2089 ****       218.7500  17.0000  17.2500 Du        
   2090 ****       218.7500  17.0000  17.5000 Du        
   2091 ****       218.7500  17.0000  17.7500 Du        
   2092 ****       218.7500  17.0000  18.0000 Du        
   2093 ****       218.7500  17.0000  18.2500 Du        
   2094 ****       218.7500  17.0000  18.5000 Du        
   2095 ****       218.7500  17.2500  16.5000 Du        
   2096 ****       218.7500  17.2500  16.7500 Du        
   2097 ****       218.7500  17.2500  17.0000 Du        
   2098 ****       218.7500  17.2500  17.2500 Du        
   2099 ****       218.7500  17.2500  17.5000 Du        
   2100 ****       218.7500  17.2500  17.7500 Du        
   2101 ****       218.7500  17.2500  18.0000 Du        
   2102 ****       218.7500  17.2500  18.2500 Du        
   2103 ****       218.7500  17.5000  16.0000 Du        
   2104 ****       218.7500  17.5000  16.2500 Du        
   2105 ****       218.7500  17.5000  16.5000 Du        
   2106 ****       218.7500  17.5000  16.7500 Du        
   2107 ****       218.7500  17.5000  17.0000 Du        
   2108 ****       218.7500  17.5000  17.2500 Du        
   2109 ****       218.7500  17.5000  17.5000 Du        
   2110 ****       218.7500  17.5000  17.7500 Du        
   2111 ****       218.7500  17.5000  18.0000 Du        
   2112 ****       218.7500  17.5000  18.2500 Du        
   2113 ****       218.7500  17.7500  16.0000 Du        
   2114 ****       218.7500  17.7500  16.2500 Du        
   2115 ****       218.7500  17.7500  16.5000 Du        
   2116 ****       218.7500  17.7500  16.7500 Du        
   2117 ****       218.7500  17.7500  17.0000 Du        
   2118 ****       218.7500  17.7500  17.2500 Du        
   2119 ****       218.7500  17.7500  17.5000 Du        
   2120 ****       218.7500  17.7500  17.7500 Du        
   2121 ****       218.7500  17.7500  18.0000 Du        
   2122 ****       218.7500  17.7500  18.2500 Du        
   2123 ****       218.7500  18.0000  16.2500 Du        
   2124 ****       218.7500  18.0000  16.5000 Du        
   2125 ****       218.7500  18.0000  16.7500 Du        
   2126 ****       218.7500  18.0000  17.0000 Du        
   2127 ****       218.7500  18.0000  17.2500 Du        
   2128 ****       218.7500  18.0000  17.5000 Du        
   2129 ****       218.7500  18.0000  17.7500 Du        
   2130 ****       218.7500  18.0000  18.0000 Du        
   2131 ****       218.7500  18.2500  16.2500 Du        
   2132 ****       218.7500  18.2500  16.5000 Du        
   2133 ****       218.7500  18.2500  16.7500 Du        
   2134 ****       218.7500  18.2500  17.0000 Du        
   2135 ****       218.7500  18.2500  17.2500 Du        
   2136 ****       218.7500  18.2500  17.5000 Du        
   2137 ****       218.7500  18.2500  17.7500 Du        
   2138 ****       218.7500  18.2500  25.7500 Du        
   2139 ****       218.7500  18.5000  16.2500 Du        
   2140 ****       218.7500  18.5000  16.5000 Du        
   2141 ****       218.7500  18.5000  16.7500 Du        
   2142 ****       218.7500  18.5000  17.0000 Du        
   2143 ****       218.7500  18.5000  17.2500 Du        
   2144 ****       218.7500  18.5000  17.5000 Du        
   2145 ****       218.7500  18.5000  17.7500 Du        
   2146 ****       218.7500  18.5000  25.2500 Du        
   2147 ****       218.7500  18.5000  25.5000 Du        
   2148 ****       218.7500  18.5000  25.7500 Du        
   2149 ****       218.7500  18.7500  16.5000 Du        
   2150 ****       218.7500  18.7500  16.7500 Du        
   2151 ****       218.7500  18.7500  17.0000 Du        
   2152 ****       218.7500  18.7500  17.2500 Du        
   2153 ****       218.7500  18.7500  17.5000 Du        
   2154 ****       218.7500  18.7500  25.2500 Du        
   2155 ****       218.7500  18.7500  25.5000 Du        
   2156 ****       218.7500  18.7500  25.7500 Du        
   2157 ****       218.7500  19.0000  16.5000 Du        
   2158 ****       218.7500  19.0000  16.7500 Du        
   2159 ****       218.7500  19.0000  17.0000 Du        
   2160 ****       218.7500  19.0000  17.2500 Du        
   2161 ****       218.7500  19.0000  25.2500 Du        
   2162 ****       218.7500  19.0000  25.5000 Du        
   2163 ****       218.7500  19.0000  25.7500 Du        
   2164 ****       218.7500  19.2500  16.5000 Du        
   2165 ****       218.7500  19.2500  16.7500 Du        
   2166 ****       218.7500  19.2500  17.0000 Du        
   2167 ****       218.7500  19.2500  17.2500 Du        
   2168 ****       218.7500  19.2500  25.2500 Du        
   2169 ****       218.7500  19.2500  25.5000 Du        
   2170 ****       218.7500  19.2500  25.7500 Du        
   2171 ****       218.7500  19.5000  16.7500 Du        
   2172 ****       218.7500  19.5000  17.0000 Du        
   2173 ****       218.7500  19.5000  25.5000 Du        
   2174 ****       218.7500  19.5000  25.7500 Du        
   2175 ****       218.7500  19.7500  16.7500 Du        
   2176 ****       218.7500  19.7500  17.0000 Du        
   2177 ****       218.7500  19.7500  25.5000 Du        
   2178 ****       218.7500  19.7500  25.7500 Du        
   2179 ****       218.7500  20.0000  16.7500 Du        
   2180 ****       218.7500  20.0000  25.5000 Du        
   2181 ****       218.7500  20.0000  25.7500 Du        
   2182 ****       218.7500  20.2500  25.5000 Du        
   2183 ****       218.7500  20.2500  25.7500 Du        
   2184 ****       218.7500  20.5000  25.5000 Du        
   2185 ****       218.7500  20.5000  25.7500 Du        
   2186 ****       218.7500  20.7500  25.5000 Du        
   2187 ****       218.7500  20.7500  25.7500 Du        
   2188 ****       218.7500  21.0000  25.2500 Du        
   2189 ****       218.7500  21.0000  25.5000 Du        
   2190 ****       218.7500  21.0000  25.7500 Du        
   2191 ****       218.7500  21.2500  25.2500 Du        
   2192 ****       218.7500  21.2500  25.5000 Du        
   2193 ****       218.7500  21.2500  25.7500 Du        
   2194 ****       218.7500  21.5000  25.2500 Du        
   2195 ****       218.7500  21.5000  25.5000 Du        
   2196 ****       218.7500  21.5000  25.7500 Du        
   2197 ****       218.7500  21.7500  25.5000 Du        
   2198 ****       218.7500  21.7500  25.7500 Du        
   2199 ****       219.0000  11.5000  10.2500 Du        
   2200 ****       219.0000  11.5000  10.7500 Du        
   2201 ****       219.0000  11.7500  10.0000 Du        
   2202 ****       219.0000  11.7500  10.2500 Du        
   2203 ****       219.0000  11.7500  10.5000 Du        
   2204 ****       219.0000  11.7500  10.7500 Du        
   2205 ****       219.0000  11.7500  11.0000 Du        
   2206 ****       219.0000  12.0000   9.7500 Du        
   2207 ****       219.0000  12.0000  10.0000 Du        
   2208 ****       219.0000  12.0000  10.2500 Du        
   2209 ****       219.0000  12.0000  10.5000 Du        
   2210 ****       219.0000  12.0000  10.7500 Du        
   2211 ****       219.0000  12.0000  11.0000 Du        
   2212 ****       219.0000  12.2500   9.5000 Du        
   2213 ****       219.0000  12.2500   9.7500 Du        
   2214 ****       219.0000  12.2500  10.0000 Du        
   2215 ****       219.0000  12.2500  10.2500 Du        
   2216 ****       219.0000  12.2500  10.5000 Du        
   2217 ****       219.0000  12.2500  10.7500 Du        
   2218 ****       219.0000  12.2500  11.0000 Du        
   2219 ****       219.0000  12.5000   9.2500 Du        
   2220 ****       219.0000  12.5000   9.5000 Du        
   2221 ****       219.0000  12.5000   9.7500 Du        
   2222 ****       219.0000  12.5000  10.0000 Du        
   2223 ****       219.0000  12.5000  10.2500 Du        
   2224 ****       219.0000  12.5000  10.5000 Du        
   2225 ****       219.0000  12.5000  10.7500 Du        
   2226 ****       219.0000  12.5000  11.0000 Du        
   2227 ****       219.0000  12.7500   9.0000 Du        
   2228 ****       219.0000  12.7500   9.2500 Du        
   2229 ****       219.0000  12.7500   9.5000 Du        
   2230 ****       219.0000  12.7500   9.7500 Du        
   2231 ****       219.0000  12.7500  10.0000 Du        
   2232 ****       219.0000  12.7500  10.2500 Du        
   2233 ****       219.0000  12.7500  10.5000 Du        
   2234 ****       219.0000  12.7500  10.7500 Du        
   2235 ****       219.0000  13.0000   9.0000 Du        
   2236 ****       219.0000  13.0000   9.2500 Du        
   2237 ****       219.0000  13.0000   9.5000 Du        
   2238 ****       219.0000  13.0000   9.7500 Du        
   2239 ****       219.0000  13.0000  10.0000 Du        
   2240 ****       219.0000  13.0000  10.2500 Du        
   2241 ****       219.0000  13.0000  10.5000 Du        
   2242 ****       219.0000  13.2500   8.7500 Du        
   2243 ****       219.0000  13.2500   9.0000 Du        
   2244 ****       219.0000  13.2500   9.2500 Du        
   2245 ****       219.0000  13.2500   9.5000 Du        
   2246 ****       219.0000  13.2500   9.7500 Du        
   2247 ****       219.0000  13.2500  10.0000 Du        
   2248 ****       219.0000  13.2500  10.2500 Du        
   2249 ****       219.0000  13.5000   8.7500 Du        
   2250 ****       219.0000  13.5000   9.0000 Du        
   2251 ****       219.0000  13.5000   9.2500 Du        
   2252 ****       219.0000  13.5000   9.5000 Du        
   2253 ****       219.0000  13.5000   9.7500 Du        
   2254 ****       219.0000  13.5000  10.0000 Du        
   2255 ****       219.0000  13.5000  10.2500 Du        
   2256 ****       219.0000  13.7500   8.7500 Du        
   2257 ****       219.0000  13.7500   9.0000 Du        
   2258 ****       219.0000  13.7500   9.2500 Du        
   2259 ****       219.0000  13.7500   9.5000 Du        
   2260 ****       219.0000  13.7500   9.7500 Du        
   2261 ****       219.0000  13.7500  10.0000 Du        
   2262 ****       219.0000  13.7500  10.2500 Du        
   2263 ****       219.0000  14.0000   9.0000 Du        
   2264 ****       219.0000  14.0000   9.2500 Du        
   2265 ****       219.0000  14.0000   9.5000 Du        
   2266 ****       219.0000  14.0000   9.7500 Du        
   2267 ****       219.0000  14.0000  10.0000 Du        
   2268 ****       219.0000  14.2500   9.0000 Du        
   2269 ****       219.0000  14.2500   9.2500 Du        
   2270 ****       219.0000  14.2500   9.5000 Du        
   2271 ****       219.0000  14.2500   9.7500 Du        
   2272 ****       219.0000  16.5000   8.2500 Du        
   2273 ****       219.0000  16.5000   8.5000 Du        
   2274 ****       219.0000  16.5000  17.5000 Du        
   2275 ****       219.0000  16.5000  17.7500 Du        
   2276 ****       219.0000  16.5000  18.0000 Du        
   2277 ****       219.0000  16.7500   8.0000 Du        
   2278 ****       219.0000  16.7500   8.2500 Du        
   2279 ****       219.0000  16.7500   8.5000 Du        
   2280 ****       219.0000  16.7500  16.7500 Du        
   2281 ****       219.0000  16.7500  17.0000 Du        
   2282 ****       219.0000  16.7500  17.2500 Du        
   2283 ****       219.0000  16.7500  17.5000 Du        
   2284 ****       219.0000  16.7500  17.7500 Du        
   2285 ****       219.0000  16.7500  18.0000 Du        
   2286 ****       219.0000  16.7500  18.2500 Du        
   2287 ****       219.0000  17.0000   7.7500 Du        
   2288 ****       219.0000  17.0000   8.0000 Du        
   2289 ****       219.0000  17.0000   8.2500 Du        
   2290 ****       219.0000  17.0000  16.5000 Du        
   2291 ****       219.0000  17.0000  16.7500 Du        
   2292 ****       219.0000  17.0000  17.0000 Du        
   2293 ****       219.0000  17.0000  17.2500 Du        
   2294 ****       219.0000  17.0000  17.5000 Du        
   2295 ****       219.0000  17.0000  17.7500 Du        
   2296 ****       219.0000  17.0000  18.0000 Du        
   2297 ****       219.0000  17.0000  18.2500 Du        
   2298 ****       219.0000  17.2500  16.5000 Du        
   2299 ****       219.0000  17.2500  16.7500 Du        
   2300 ****       219.0000  17.2500  17.0000 Du        
   2301 ****       219.0000  17.2500  17.2500 Du        
   2302 ****       219.0000  17.2500  17.5000 Du        
   2303 ****       219.0000  17.2500  17.7500 Du        
   2304 ****       219.0000  17.2500  18.0000 Du        
   2305 ****       219.0000  17.2500  18.2500 Du        
   2306 ****       219.0000  17.5000  16.2500 Du        
   2307 ****       219.0000  17.5000  16.5000 Du        
   2308 ****       219.0000  17.5000  16.7500 Du        
   2309 ****       219.0000  17.5000  17.0000 Du        
   2310 ****       219.0000  17.5000  17.2500 Du        
   2311 ****       219.0000  17.5000  17.5000 Du        
   2312 ****       219.0000  17.5000  17.7500 Du        
   2313 ****       219.0000  17.5000  18.0000 Du        
   2314 ****       219.0000  17.5000  18.2500 Du        
   2315 ****       219.0000  17.7500  16.2500 Du        
   2316 ****       219.0000  17.7500  16.5000 Du        
   2317 ****       219.0000  17.7500  16.7500 Du        
   2318 ****       219.0000  17.7500  17.0000 Du        
   2319 ****       219.0000  17.7500  17.2500 Du        
   2320 ****       219.0000  17.7500  17.5000 Du        
   2321 ****       219.0000  17.7500  17.7500 Du        
   2322 ****       219.0000  17.7500  18.0000 Du        
   2323 ****       219.0000  18.0000  16.2500 Du        
   2324 ****       219.0000  18.0000  16.5000 Du        
   2325 ****       219.0000  18.0000  16.7500 Du        
   2326 ****       219.0000  18.0000  17.0000 Du        
   2327 ****       219.0000  18.0000  17.2500 Du        
   2328 ****       219.0000  18.0000  17.5000 Du        
   2329 ****       219.0000  18.0000  17.7500 Du        
   2330 ****       219.0000  18.0000  18.0000 Du        
   2331 ****       219.0000  18.2500  16.2500 Du        
   2332 ****       219.0000  18.2500  16.5000 Du        
   2333 ****       219.0000  18.2500  16.7500 Du        
   2334 ****       219.0000  18.2500  17.0000 Du        
   2335 ****       219.0000  18.2500  17.2500 Du        
   2336 ****       219.0000  18.2500  17.5000 Du        
   2337 ****       219.0000  18.2500  17.7500 Du        
   2338 ****       219.0000  18.5000  16.5000 Du        
   2339 ****       219.0000  18.5000  16.7500 Du        
   2340 ****       219.0000  18.5000  17.0000 Du        
   2341 ****       219.0000  18.5000  17.2500 Du        
   2342 ****       219.0000  18.5000  17.5000 Du        
   2343 ****       219.0000  18.5000  25.5000 Du        
   2344 ****       219.0000  18.5000  25.7500 Du        
   2345 ****       219.0000  18.7500  16.5000 Du        
   2346 ****       219.0000  18.7500  16.7500 Du        
   2347 ****       219.0000  18.7500  17.0000 Du        
   2348 ****       219.0000  18.7500  17.2500 Du        
   2349 ****       219.0000  18.7500  25.5000 Du        
   2350 ****       219.0000  18.7500  25.7500 Du        
   2351 ****       219.0000  19.0000  16.5000 Du        
   2352 ****       219.0000  19.0000  16.7500 Du        
   2353 ****       219.0000  19.0000  17.0000 Du        
   2354 ****       219.0000  19.0000  17.2500 Du        
   2355 ****       219.0000  19.0000  25.5000 Du        
   2356 ****       219.0000  19.0000  25.7500 Du        
   2357 ****       219.0000  19.2500  16.7500 Du        
   2358 ****       219.0000  19.2500  17.0000 Du        
   2359 ****       219.0000  19.2500  25.5000 Du        
   2360 ****       219.0000  19.2500  25.7500 Du        
   2361 ****       219.0000  19.5000  16.7500 Du        
   2362 ****       219.0000  19.5000  25.5000 Du        
   2363 ****       219.0000  19.5000  25.7500 Du        
   2364 ****       219.0000  19.7500  25.5000 Du        
   2365 ****       219.0000  19.7500  25.7500 Du        
   2366 ****       219.0000  20.0000  25.5000 Du        
   2367 ****       219.0000  20.0000  25.7500 Du        
   2368 ****       219.0000  20.2500  25.5000 Du        
   2369 ****       219.0000  20.2500  25.7500 Du        
   2370 ****       219.0000  20.5000  25.5000 Du        
   2371 ****       219.0000  20.5000  25.7500 Du        
   2372 ****       219.0000  20.7500  25.5000 Du        
   2373 ****       219.0000  20.7500  25.7500 Du        
   2374 ****       219.0000  21.0000  25.5000 Du        
   2375 ****       219.0000  21.0000  25.7500 Du        
   2376 ****       219.0000  21.2500  25.2500 Du        
   2377 ****       219.0000  21.2500  25.5000 Du        
   2378 ****       219.0000  21.2500  25.7500 Du        
   2379 ****       219.0000  21.5000  25.2500 Du        
   2380 ****       219.0000  21.5000  25.5000 Du        
   2381 ****       219.0000  21.5000  25.7500 Du        
   2382 ****       219.0000  21.7500  25.5000 Du        
   2383 ****       219.0000  21.7500  25.7500 Du        
   2384 ****       219.2500  11.0000  10.2500 Du        
   2385 ****       219.2500  11.0000  10.7500 Du        
   2386 ****       219.2500  11.2500  10.2500 Du        
   2387 ****       219.2500  11.2500  10.5000 Du        
   2388 ****       219.2500  11.2500  10.7500 Du        
   2389 ****       219.2500  11.2500  11.0000 Du        
   2390 ****       219.2500  11.5000  10.0000 Du        
   2391 ****       219.2500  11.5000  10.2500 Du        
   2392 ****       219.2500  11.5000  10.5000 Du        
   2393 ****       219.2500  11.5000  10.7500 Du        
   2394 ****       219.2500  11.5000  11.0000 Du        
   2395 ****       219.2500  11.7500   9.7500 Du        
   2396 ****       219.2500  11.7500  10.0000 Du        
   2397 ****       219.2500  11.7500  10.2500 Du        
   2398 ****       219.2500  11.7500  10.5000 Du        
   2399 ****       219.2500  11.7500  10.7500 Du        
   2400 ****       219.2500  11.7500  11.0000 Du        
   2401 ****       219.2500  12.0000   9.7500 Du        
   2402 ****       219.2500  12.0000  10.0000 Du        
   2403 ****       219.2500  12.0000  10.2500 Du        
   2404 ****       219.2500  12.0000  10.5000 Du        
   2405 ****       219.2500  12.0000  10.7500 Du        
   2406 ****       219.2500  12.0000  11.0000 Du        
   2407 ****       219.2500  12.2500   9.2500 Du        
   2408 ****       219.2500  12.2500   9.5000 Du        
   2409 ****       219.2500  12.2500   9.7500 Du        
   2410 ****       219.2500  12.2500  10.0000 Du        
   2411 ****       219.2500  12.2500  10.2500 Du        
   2412 ****       219.2500  12.2500  10.5000 Du        
   2413 ****       219.2500  12.2500  10.7500 Du        
   2414 ****       219.2500  12.2500  11.0000 Du        
   2415 ****       219.2500  12.5000   9.2500 Du        
   2416 ****       219.2500  12.5000   9.5000 Du        
   2417 ****       219.2500  12.5000   9.7500 Du        
   2418 ****       219.2500  12.5000  10.0000 Du        
   2419 ****       219.2500  12.5000  10.2500 Du        
   2420 ****       219.2500  12.5000  10.5000 Du        
   2421 ****       219.2500  12.5000  10.7500 Du        
   2422 ****       219.2500  12.5000  11.0000 Du        
   2423 ****       219.2500  12.7500   9.0000 Du        
   2424 ****       219.2500  12.7500   9.2500 Du        
   2425 ****       219.2500  12.7500   9.5000 Du        
   2426 ****       219.2500  12.7500   9.7500 Du        
   2427 ****       219.2500  12.7500  10.0000 Du        
   2428 ****       219.2500  12.7500  10.2500 Du        
   2429 ****       219.2500  12.7500  10.5000 Du        
   2430 ****       219.2500  12.7500  10.7500 Du        
   2431 ****       219.2500  12.7500  11.0000 Du        
   2432 ****       219.2500  13.0000   9.0000 Du        
   2433 ****       219.2500  13.0000   9.2500 Du        
   2434 ****       219.2500  13.0000   9.5000 Du        
   2435 ****       219.2500  13.0000   9.7500 Du        
   2436 ****       219.2500  13.0000  10.0000 Du        
   2437 ****       219.2500  13.0000  10.2500 Du        
   2438 ****       219.2500  13.0000  10.5000 Du        
   2439 ****       219.2500  13.0000  10.7500 Du        
   2440 ****       219.2500  13.0000  11.0000 Du        
   2441 ****       219.2500  13.2500   8.7500 Du        
   2442 ****       219.2500  13.2500   9.0000 Du        
   2443 ****       219.2500  13.2500   9.2500 Du        
   2444 ****       219.2500  13.2500   9.5000 Du        
   2445 ****       219.2500  13.2500   9.7500 Du        
   2446 ****       219.2500  13.2500  10.0000 Du        
   2447 ****       219.2500  13.2500  10.2500 Du        
   2448 ****       219.2500  13.2500  10.5000 Du        
   2449 ****       219.2500  13.2500  10.7500 Du        
   2450 ****       219.2500  13.2500  11.0000 Du        
   2451 ****       219.2500  13.5000   8.7500 Du        
   2452 ****       219.2500  13.5000   9.0000 Du        
   2453 ****       219.2500  13.5000   9.2500 Du        
   2454 ****       219.2500  13.5000   9.5000 Du        
   2455 ****       219.2500  13.5000   9.7500 Du        
   2456 ****       219.2500  13.5000  10.0000 Du        
   2457 ****       219.2500  13.5000  10.2500 Du        
   2458 ****       219.2500  13.5000  10.5000 Du        
   2459 ****       219.2500  13.7500   8.7500 Du        
   2460 ****       219.2500  13.7500   9.0000 Du        
   2461 ****       219.2500  13.7500   9.2500 Du        
   2462 ****       219.2500  13.7500   9.5000 Du        
   2463 ****       219.2500  13.7500   9.7500 Du        
   2464 ****       219.2500  13.7500  10.0000 Du        
   2465 ****       219.2500  13.7500  10.2500 Du        
   2466 ****       219.2500  13.7500  10.5000 Du        
   2467 ****       219.2500  14.0000   8.7500 Du        
   2468 ****       219.2500  14.0000   9.0000 Du        
   2469 ****       219.2500  14.0000   9.2500 Du        
   2470 ****       219.2500  14.0000   9.5000 Du        
   2471 ****       219.2500  14.0000   9.7500 Du        
   2472 ****       219.2500  14.0000  10.0000 Du        
   2473 ****       219.2500  14.0000  10.2500 Du        
   2474 ****       219.2500  14.0000  10.5000 Du        
   2475 ****       219.2500  14.2500   8.7500 Du        
   2476 ****       219.2500  14.2500   9.0000 Du        
   2477 ****       219.2500  14.2500   9.2500 Du        
   2478 ****       219.2500  14.2500   9.5000 Du        
   2479 ****       219.2500  14.2500   9.7500 Du        
   2480 ****       219.2500  14.2500  10.0000 Du        
   2481 ****       219.2500  14.2500  10.2500 Du        
   2482 ****       219.2500  14.5000   9.0000 Du        
   2483 ****       219.2500  14.5000   9.2500 Du        
   2484 ****       219.2500  14.5000   9.5000 Du        
   2485 ****       219.2500  14.5000   9.7500 Du        
   2486 ****       219.2500  14.5000  10.0000 Du        
   2487 ****       219.2500  14.5000  10.2500 Du        
   2488 ****       219.2500  14.7500   9.0000 Du        
   2489 ****       219.2500  14.7500   9.2500 Du        
   2490 ****       219.2500  14.7500   9.5000 Du        
   2491 ****       219.2500  14.7500   9.7500 Du        
   2492 ****       219.2500  14.7500  10.0000 Du        
   2493 ****       219.2500  15.0000   9.0000 Du        
   2494 ****       219.2500  15.0000   9.2500 Du        
   2495 ****       219.2500  15.2500   9.0000 Du        
   2496 ****       219.2500  15.5000   9.0000 Du        
   2497 ****       219.2500  15.7500   8.7500 Du        
   2498 ****       219.2500  15.7500   9.0000 Du        
   2499 ****       219.2500  16.0000   8.5000 Du        
   2500 ****       219.2500  16.0000   8.7500 Du        
   2501 ****       219.2500  16.0000   9.0000 Du        
   2502 ****       219.2500  16.2500   8.2500 Du        
   2503 ****       219.2500  16.2500   8.5000 Du        
   2504 ****       219.2500  16.2500   8.7500 Du        
   2505 ****       219.2500  16.2500   9.0000 Du        
   2506 ****       219.2500  16.5000   8.0000 Du        
   2507 ****       219.2500  16.5000   8.2500 Du        
   2508 ****       219.2500  16.5000   8.5000 Du        
   2509 ****       219.2500  16.5000   8.7500 Du        
   2510 ****       219.2500  16.5000   9.0000 Du        
   2511 ****       219.2500  16.7500   7.7500 Du        
   2512 ****       219.2500  16.7500   8.0000 Du        
   2513 ****       219.2500  16.7500   8.2500 Du        
   2514 ****       219.2500  16.7500   8.5000 Du        
   2515 ****       219.2500  16.7500   8.7500 Du        
   2516 ****       219.2500  16.7500  17.2500 Du        
   2517 ****       219.2500  16.7500  17.5000 Du        
   2518 ****       219.2500  16.7500  17.7500 Du        
   2519 ****       219.2500  17.0000   7.5000 Du        
   2520 ****       219.2500  17.0000   7.7500 Du        
   2521 ****       219.2500  17.0000   8.0000 Du        
   2522 ****       219.2500  17.0000   8.2500 Du        
   2523 ****       219.2500  17.0000  16.7500 Du        
   2524 ****       219.2500  17.0000  17.0000 Du        
   2525 ****       219.2500  17.0000  17.2500 Du        
   2526 ****       219.2500  17.0000  17.5000 Du        
   2527 ****       219.2500  17.0000  17.7500 Du        
   2528 ****       219.2500  17.2500  16.5000 Du        
   2529 ****       219.2500  17.2500  16.7500 Du        
   2530 ****       219.2500  17.2500  17.0000 Du        
   2531 ****       219.2500  17.2500  17.2500 Du        
   2532 ****       219.2500  17.2500  17.5000 Du        
   2533 ****       219.2500  17.2500  17.7500 Du        
   2534 ****       219.2500  17.2500  18.0000 Du        
   2535 ****       219.2500  17.5000  16.2500 Du        
   2536 ****       219.2500  17.5000  16.5000 Du        
   2537 ****       219.2500  17.5000  16.7500 Du        
   2538 ****       219.2500  17.5000  17.0000 Du        
   2539 ****       219.2500  17.5000  17.2500 Du        
   2540 ****       219.2500  17.5000  17.5000 Du        
   2541 ****       219.2500  17.5000  17.7500 Du        
   2542 ****       219.2500  17.5000  18.0000 Du        
   2543 ****       219.2500  17.7500  16.2500 Du        
   2544 ****       219.2500  17.7500  16.5000 Du        
   2545 ****       219.2500  17.7500  16.7500 Du        
   2546 ****       219.2500  17.7500  17.0000 Du        
   2547 ****       219.2500  17.7500  17.2500 Du        
   2548 ****       219.2500  17.7500  17.5000 Du        
   2549 ****       219.2500  17.7500  17.7500 Du        
   2550 ****       219.2500  18.0000  16.5000 Du        
   2551 ****       219.2500  18.0000  16.7500 Du        
   2552 ****       219.2500  18.0000  17.0000 Du        
   2553 ****       219.2500  18.0000  17.2500 Du        
   2554 ****       219.2500  18.0000  17.5000 Du        
   2555 ****       219.2500  18.0000  17.7500 Du        
   2556 ****       219.2500  18.2500  16.5000 Du        
   2557 ****       219.2500  18.2500  16.7500 Du        
   2558 ****       219.2500  18.2500  17.0000 Du        
   2559 ****       219.2500  18.2500  17.2500 Du        
   2560 ****       219.2500  18.2500  17.5000 Du        
   2561 ****       219.2500  18.5000  16.5000 Du        
   2562 ****       219.2500  18.5000  16.7500 Du        
   2563 ****       219.2500  18.5000  17.0000 Du        
   2564 ****       219.2500  18.5000  17.2500 Du        
   2565 ****       219.2500  18.5000  25.7500 Du        
   2566 ****       219.2500  18.7500  16.5000 Du        
   2567 ****       219.2500  18.7500  16.7500 Du        
   2568 ****       219.2500  18.7500  17.0000 Du        
   2569 ****       219.2500  18.7500  17.2500 Du        
   2570 ****       219.2500  18.7500  25.5000 Du        
   2571 ****       219.2500  18.7500  25.7500 Du        
   2572 ****       219.2500  19.0000  16.7500 Du        
   2573 ****       219.2500  19.0000  17.0000 Du        
   2574 ****       219.2500  19.0000  25.5000 Du        
   2575 ****       219.2500  19.0000  25.7500 Du        
   2576 ****       219.2500  19.2500  25.5000 Du        
   2577 ****       219.2500  19.2500  25.7500 Du        
   2578 ****       219.2500  19.5000  25.7500 Du        
   2579 ****       219.2500  19.7500  25.7500 Du        
   2580 ****       219.2500  20.0000  25.7500 Du        
   2581 ****       219.2500  20.2500  25.7500 Du        
   2582 ****       219.2500  20.5000  25.7500 Du        
   2583 ****       219.2500  20.7500  25.5000 Du        
   2584 ****       219.2500  20.7500  25.7500 Du        
   2585 ****       219.2500  21.0000  25.5000 Du        
   2586 ****       219.2500  21.0000  25.7500 Du        
   2587 ****       219.2500  21.2500  25.5000 Du        
   2588 ****       219.2500  21.2500  25.7500 Du        
   2589 ****       219.2500  21.5000  25.2500 Du        
   2590 ****       219.2500  21.5000  25.5000 Du        
   2591 ****       219.2500  21.5000  25.7500 Du        
   2592 ****       219.2500  21.7500  25.2500 Du        
   2593 ****       219.2500  21.7500  25.5000 Du        
   2594 ****       219.2500  21.7500  25.7500 Du        
   2595 ****       219.5000  10.2500  22.7500 Du        
   2596 ****       219.5000  10.5000  22.7500 Du        
   2597 ****       219.5000  10.7500  10.2500 Du        
   2598 ****       219.5000  10.7500  22.7500 Du        
   2599 ****       219.5000  10.7500  23.0000 Du        
   2600 ****       219.5000  10.7500  23.2500 Du        
   2601 ****       219.5000  10.7500  23.5000 Du        
   2602 ****       219.5000  10.7500  23.7500 Du        
   2603 ****       219.5000  11.0000  10.0000 Du        
   2604 ****       219.5000  11.0000  10.2500 Du        
   2605 ****       219.5000  11.0000  22.7500 Du        
   2606 ****       219.5000  11.0000  23.0000 Du        
   2607 ****       219.5000  11.0000  23.2500 Du        
   2608 ****       219.5000  11.0000  23.5000 Du        
   2609 ****       219.5000  11.0000  23.7500 Du        
   2610 ****       219.5000  11.2500  10.0000 Du        
   2611 ****       219.5000  11.2500  10.2500 Du        
   2612 ****       219.5000  11.2500  22.7500 Du        
   2613 ****       219.5000  11.2500  23.0000 Du        
   2614 ****       219.5000  11.2500  23.2500 Du        
   2615 ****       219.5000  11.2500  23.5000 Du        
   2616 ****       219.5000  11.2500  23.7500 Du        
   2617 ****       219.5000  11.2500  24.0000 Du        
   2618 ****       219.5000  11.2500  24.2500 Du        
   2619 ****       219.5000  11.5000  10.0000 Du        
   2620 ****       219.5000  11.5000  10.2500 Du        
   2621 ****       219.5000  11.5000  10.5000 Du        
   2622 ****       219.5000  11.5000  23.0000 Du        
   2623 ****       219.5000  11.5000  23.2500 Du        
   2624 ****       219.5000  11.7500   9.7500 Du        
   2625 ****       219.5000  11.7500  10.0000 Du        
   2626 ****       219.5000  11.7500  10.2500 Du        
   2627 ****       219.5000  11.7500  10.5000 Du        
   2628 ****       219.5000  11.7500  10.7500 Du        
   2629 ****       219.5000  12.0000   9.7500 Du        
   2630 ****       219.5000  12.0000  10.0000 Du        
   2631 ****       219.5000  12.0000  10.2500 Du        
   2632 ****       219.5000  12.0000  10.5000 Du        
   2633 ****       219.5000  12.0000  10.7500 Du        
   2634 ****       219.5000  12.0000  11.0000 Du        
   2635 ****       219.5000  12.2500   9.7500 Du        
   2636 ****       219.5000  12.2500  10.0000 Du        
   2637 ****       219.5000  12.2500  10.2500 Du        
   2638 ****       219.5000  12.2500  10.5000 Du        
   2639 ****       219.5000  12.2500  10.7500 Du        
   2640 ****       219.5000  12.5000   9.7500 Du        
   2641 ****       219.5000  12.5000  10.0000 Du        
   2642 ****       219.5000  12.5000  10.2500 Du        
   2643 ****       219.5000  12.5000  10.5000 Du        
   2644 ****       219.5000  12.5000  10.7500 Du        
   2645 ****       219.5000  12.5000  11.0000 Du        
   2646 ****       219.5000  12.7500   9.5000 Du        
   2647 ****       219.5000  12.7500   9.7500 Du        
   2648 ****       219.5000  12.7500  10.0000 Du        
   2649 ****       219.5000  12.7500  10.2500 Du        
   2650 ****       219.5000  12.7500  10.5000 Du        
   2651 ****       219.5000  12.7500  10.7500 Du        
   2652 ****       219.5000  12.7500  11.0000 Du        
   2653 ****       219.5000  13.0000   9.2500 Du        
   2654 ****       219.5000  13.0000   9.5000 Du        
   2655 ****       219.5000  13.0000   9.7500 Du        
   2656 ****       219.5000  13.0000  10.0000 Du        
   2657 ****       219.5000  13.0000  10.2500 Du        
   2658 ****       219.5000  13.0000  10.5000 Du        
   2659 ****       219.5000  13.0000  10.7500 Du        
   2660 ****       219.5000  13.0000  11.0000 Du        
   2661 ****       219.5000  13.2500   9.0000 Du        
   2662 ****       219.5000  13.2500   9.2500 Du        
   2663 ****       219.5000  13.2500   9.5000 Du        
   2664 ****       219.5000  13.2500   9.7500 Du        
   2665 ****       219.5000  13.2500  10.0000 Du        
   2666 ****       219.5000  13.2500  10.2500 Du        
   2667 ****       219.5000  13.2500  10.5000 Du        
   2668 ****       219.5000  13.2500  10.7500 Du        
   2669 ****       219.5000  13.2500  11.0000 Du        
   2670 ****       219.5000  13.5000   9.0000 Du        
   2671 ****       219.5000  13.5000   9.2500 Du        
   2672 ****       219.5000  13.5000   9.5000 Du        
   2673 ****       219.5000  13.5000   9.7500 Du        
   2674 ****       219.5000  13.5000  10.0000 Du        
   2675 ****       219.5000  13.5000  10.2500 Du        
   2676 ****       219.5000  13.5000  10.5000 Du        
   2677 ****       219.5000  13.5000  10.7500 Du        
   2678 ****       219.5000  13.7500   9.0000 Du        
   2679 ****       219.5000  13.7500   9.2500 Du        
   2680 ****       219.5000  13.7500   9.5000 Du        
   2681 ****       219.5000  13.7500   9.7500 Du        
   2682 ****       219.5000  13.7500  10.0000 Du        
   2683 ****       219.5000  13.7500  10.2500 Du        
   2684 ****       219.5000  13.7500  10.5000 Du        
   2685 ****       219.5000  13.7500  10.7500 Du        
   2686 ****       219.5000  14.0000   9.0000 Du        
   2687 ****       219.5000  14.0000   9.2500 Du        
   2688 ****       219.5000  14.0000   9.5000 Du        
   2689 ****       219.5000  14.0000   9.7500 Du        
   2690 ****       219.5000  14.0000  10.0000 Du        
   2691 ****       219.5000  14.0000  10.2500 Du        
   2692 ****       219.5000  14.0000  10.5000 Du        
   2693 ****       219.5000  14.0000  10.7500 Du        
   2694 ****       219.5000  14.0000  11.0000 Du        
   2695 ****       219.5000  14.2500   9.0000 Du        
   2696 ****       219.5000  14.2500   9.2500 Du        
   2697 ****       219.5000  14.2500   9.5000 Du        
   2698 ****       219.5000  14.2500   9.7500 Du        
   2699 ****       219.5000  14.2500  10.0000 Du        
   2700 ****       219.5000  14.2500  10.2500 Du        
   2701 ****       219.5000  14.2500  10.5000 Du        
   2702 ****       219.5000  14.2500  10.7500 Du        
   2703 ****       219.5000  14.5000   9.0000 Du        
   2704 ****       219.5000  14.5000   9.2500 Du        
   2705 ****       219.5000  14.5000   9.5000 Du        
   2706 ****       219.5000  14.5000   9.7500 Du        
   2707 ****       219.5000  14.5000  10.0000 Du        
   2708 ****       219.5000  14.5000  10.2500 Du        
   2709 ****       219.5000  14.5000  10.5000 Du        
   2710 ****       219.5000  14.7500   9.0000 Du        
   2711 ****       219.5000  14.7500   9.2500 Du        
   2712 ****       219.5000  14.7500   9.5000 Du        
   2713 ****       219.5000  14.7500   9.7500 Du        
   2714 ****       219.5000  14.7500  10.0000 Du        
   2715 ****       219.5000  14.7500  10.2500 Du        
   2716 ****       219.5000  14.7500  10.5000 Du        
   2717 ****       219.5000  14.7500  10.7500 Du        
   2718 ****       219.5000  15.0000   9.0000 Du        
   2719 ****       219.5000  15.0000   9.2500 Du        
   2720 ****       219.5000  15.0000   9.5000 Du        
   2721 ****       219.5000  15.0000   9.7500 Du        
   2722 ****       219.5000  15.0000  10.0000 Du        
   2723 ****       219.5000  15.0000  10.2500 Du        
   2724 ****       219.5000  15.2500   9.0000 Du        
   2725 ****       219.5000  15.2500   9.2500 Du        
   2726 ****       219.5000  15.2500   9.5000 Du        
   2727 ****       219.5000  15.2500   9.7500 Du        
   2728 ****       219.5000  15.2500  10.0000 Du        
   2729 ****       219.5000  15.2500  10.2500 Du        
   2730 ****       219.5000  15.5000   9.0000 Du        
   2731 ****       219.5000  15.5000   9.2500 Du        
   2732 ****       219.5000  15.5000   9.5000 Du        
   2733 ****       219.5000  15.5000   9.7500 Du        
   2734 ****       219.5000  15.5000  10.0000 Du        
   2735 ****       219.5000  15.7500   8.7500 Du        
   2736 ****       219.5000  15.7500   9.0000 Du        
   2737 ****       219.5000  15.7500   9.2500 Du        
   2738 ****       219.5000  15.7500   9.5000 Du        
   2739 ****       219.5000  15.7500   9.7500 Du        
   2740 ****       219.5000  16.0000   8.7500 Du        
   2741 ****       219.5000  16.0000   9.0000 Du        
   2742 ****       219.5000  16.0000   9.2500 Du        
   2743 ****       219.5000  16.2500   8.2500 Du        
   2744 ****       219.5000  16.2500   8.5000 Du        
   2745 ****       219.5000  16.2500   8.7500 Du        
   2746 ****       219.5000  16.2500   9.0000 Du        
   2747 ****       219.5000  16.2500   9.2500 Du        
   2748 ****       219.5000  16.5000   8.0000 Du        
   2749 ****       219.5000  16.5000   8.2500 Du        
   2750 ****       219.5000  16.5000   8.5000 Du        
   2751 ****       219.5000  16.5000   8.7500 Du        
   2752 ****       219.5000  16.7500   7.5000 Du        
   2753 ****       219.5000  16.7500   7.7500 Du        
   2754 ****       219.5000  16.7500   8.0000 Du        
   2755 ****       219.5000  16.7500   8.2500 Du        
   2756 ****       219.5000  16.7500   8.5000 Du        
   2757 ****       219.5000  17.0000   7.0000 Du        
   2758 ****       219.5000  17.0000   7.2500 Du        
   2759 ****       219.5000  17.0000   7.5000 Du        
   2760 ****       219.5000  17.0000   7.7500 Du        
   2761 ****       219.5000  17.0000   8.0000 Du        
   2762 ****       219.5000  17.2500   7.0000 Du        
   2763 ****       219.5000  17.2500   7.2500 Du        
   2764 ****       219.5000  17.2500  17.5000 Du        
   2765 ****       219.5000  17.5000  16.7500 Du        
   2766 ****       219.5000  17.5000  17.0000 Du        
   2767 ****       219.5000  17.5000  17.2500 Du        
   2768 ****       219.5000  17.5000  17.5000 Du        
   2769 ****       219.5000  17.5000  17.7500 Du        
   2770 ****       219.5000  17.7500  16.7500 Du        
   2771 ****       219.5000  17.7500  17.0000 Du        
   2772 ****       219.5000  17.7500  17.2500 Du        
   2773 ****       219.5000  17.7500  17.5000 Du        
   2774 ****       219.5000  17.7500  17.7500 Du        
   2775 ****       219.5000  18.0000  16.7500 Du        
   2776 ****       219.5000  18.0000  17.0000 Du        
   2777 ****       219.5000  18.0000  17.2500 Du        
   2778 ****       219.5000  18.0000  17.5000 Du        
   2779 ****       219.5000  18.2500  16.7500 Du        
   2780 ****       219.5000  18.2500  17.0000 Du        
   2781 ****       219.5000  18.2500  17.2500 Du        
   2782 ****       219.5000  18.5000  16.7500 Du        
   2783 ****       219.5000  18.5000  17.0000 Du        
   2784 ****       219.5000  18.5000  17.2500 Du        
   2785 ****       219.5000  18.7500  16.7500 Du        
   2786 ****       219.5000  18.7500  17.0000 Du        
   2787 ****       219.5000  18.7500  25.7500 Du        
   2788 ****       219.5000  19.0000  25.7500 Du        
   2789 ****       219.5000  19.2500  25.7500 Du        
   2790 ****       219.5000  19.5000  25.7500 Du        
   2791 ****       219.5000  19.7500  25.7500 Du        
   2792 ****       219.5000  20.0000  25.7500 Du        
   2793 ****       219.5000  20.2500  25.7500 Du        
   2794 ****       219.5000  20.5000  25.7500 Du        
   2795 ****       219.5000  20.7500  25.7500 Du        
   2796 ****       219.5000  21.0000  25.5000 Du        
   2797 ****       219.5000  21.0000  25.7500 Du        
   2798 ****       219.5000  21.2500  25.5000 Du        
   2799 ****       219.5000  21.2500  25.7500 Du        
   2800 ****       219.5000  21.5000  25.2500 Du        
   2801 ****       219.5000  21.5000  25.5000 Du        
   2802 ****       219.5000  21.5000  25.7500 Du        
   2803 ****       219.5000  21.7500  25.2500 Du        
   2804 ****       219.5000  21.7500  25.5000 Du        
   2805 ****       219.5000  21.7500  25.7500 Du        
   2806 ****       219.5000  22.0000  25.2500 Du        
   2807 ****       219.5000  22.0000  25.5000 Du        
   2808 ****       219.5000  22.0000  25.7500 Du        
   2809 ****       219.7500   9.7500  10.2500 Du        
   2810 ****       219.7500  10.0000  10.0000 Du        
   2811 ****       219.7500  10.0000  10.2500 Du        
   2812 ****       219.7500  10.2500  10.0000 Du        
   2813 ****       219.7500  10.2500  10.2500 Du        
   2814 ****       219.7500  10.2500  22.7500 Du        
   2815 ****       219.7500  10.2500  23.0000 Du        
   2816 ****       219.7500  10.2500  23.2500 Du        
   2817 ****       219.7500  10.5000  10.0000 Du        
   2818 ****       219.7500  10.5000  10.2500 Du        
   2819 ****       219.7500  10.5000  22.7500 Du        
   2820 ****       219.7500  10.5000  23.0000 Du        
   2821 ****       219.7500  10.5000  23.2500 Du        
   2822 ****       219.7500  10.7500  10.0000 Du        
   2823 ****       219.7500  10.7500  10.2500 Du        
   2824 ****       219.7500  10.7500  23.0000 Du        
   2825 ****       219.7500  10.7500  23.2500 Du        
   2826 ****       219.7500  10.7500  23.5000 Du        
   2827 ****       219.7500  10.7500  23.7500 Du        
   2828 ****       219.7500  11.0000  10.0000 Du        
   2829 ****       219.7500  11.0000  10.2500 Du        
   2830 ****       219.7500  11.0000  23.0000 Du        
   2831 ****       219.7500  11.0000  23.2500 Du        
   2832 ****       219.7500  11.0000  23.5000 Du        
   2833 ****       219.7500  11.0000  23.7500 Du        
   2834 ****       219.7500  11.2500  10.0000 Du        
   2835 ****       219.7500  11.2500  10.2500 Du        
   2836 ****       219.7500  11.2500  23.0000 Du        
   2837 ****       219.7500  11.2500  23.2500 Du        
   2838 ****       219.7500  11.2500  23.5000 Du        
   2839 ****       219.7500  11.2500  23.7500 Du        
   2840 ****       219.7500  11.2500  24.0000 Du        
   2841 ****       219.7500  11.2500  24.2500 Du        
   2842 ****       219.7500  11.5000  10.2500 Du        
   2843 ****       219.7500  11.5000  23.2500 Du        
   2844 ****       219.7500  11.5000  23.5000 Du        
   2845 ****       219.7500  11.5000  23.7500 Du        
   2846 ****       219.7500  11.5000  24.0000 Du        
   2847 ****       219.7500  11.5000  24.2500 Du        
   2848 ****       219.7500  11.7500  10.2500 Du        
   2849 ****       219.7500  12.5000  10.2500 Du        
   2850 ****       219.7500  12.7500  10.0000 Du        
   2851 ****       219.7500  12.7500  10.2500 Du        
   2852 ****       219.7500  12.7500  10.5000 Du        
   2853 ****       219.7500  12.7500  10.7500 Du        
   2854 ****       219.7500  12.7500  11.0000 Du        
   2855 ****       219.7500  13.0000  10.0000 Du        
   2856 ****       219.7500  13.0000  10.2500 Du        
   2857 ****       219.7500  13.0000  10.5000 Du        
   2858 ****       219.7500  13.0000  10.7500 Du        
   2859 ****       219.7500  13.0000  11.0000 Du        
   2860 ****       219.7500  13.2500   9.7500 Du        
   2861 ****       219.7500  13.2500  10.0000 Du        
   2862 ****       219.7500  13.2500  10.2500 Du        
   2863 ****       219.7500  13.2500  10.5000 Du        
   2864 ****       219.7500  13.2500  10.7500 Du        
   2865 ****       219.7500  13.2500  11.0000 Du        
   2866 ****       219.7500  13.5000   9.2500 Du        
   2867 ****       219.7500  13.5000   9.5000 Du        
   2868 ****       219.7500  13.5000   9.7500 Du        
   2869 ****       219.7500  13.5000  10.0000 Du        
   2870 ****       219.7500  13.5000  10.2500 Du        
   2871 ****       219.7500  13.5000  10.5000 Du        
   2872 ****       219.7500  13.5000  10.7500 Du        
   2873 ****       219.7500  13.5000  11.0000 Du        
   2874 ****       219.7500  13.7500   9.2500 Du        
   2875 ****       219.7500  13.7500   9.5000 Du        
   2876 ****       219.7500  13.7500   9.7500 Du        
   2877 ****       219.7500  13.7500  10.0000 Du        
   2878 ****       219.7500  13.7500  10.2500 Du        
   2879 ****       219.7500  13.7500  10.5000 Du        
   2880 ****       219.7500  13.7500  10.7500 Du        
   2881 ****       219.7500  13.7500  11.0000 Du        
   2882 ****       219.7500  14.0000   9.2500 Du        
   2883 ****       219.7500  14.0000   9.5000 Du        
   2884 ****       219.7500  14.0000   9.7500 Du        
   2885 ****       219.7500  14.0000  10.0000 Du        
   2886 ****       219.7500  14.0000  10.2500 Du        
   2887 ****       219.7500  14.0000  10.5000 Du        
   2888 ****       219.7500  14.0000  10.7500 Du        
   2889 ****       219.7500  14.0000  11.0000 Du        
   2890 ****       219.7500  14.2500   9.2500 Du        
   2891 ****       219.7500  14.2500   9.5000 Du        
   2892 ****       219.7500  14.2500   9.7500 Du        
   2893 ****       219.7500  14.2500  10.0000 Du        
   2894 ****       219.7500  14.2500  10.2500 Du        
   2895 ****       219.7500  14.2500  10.5000 Du        
   2896 ****       219.7500  14.2500  10.7500 Du        
   2897 ****       219.7500  14.2500  11.0000 Du        
   2898 ****       219.7500  14.2500  11.2500 Du        
   2899 ****       219.7500  14.5000   9.2500 Du        
   2900 ****       219.7500  14.5000   9.5000 Du        
   2901 ****       219.7500  14.5000   9.7500 Du        
   2902 ****       219.7500  14.5000  10.0000 Du        
   2903 ****       219.7500  14.5000  10.2500 Du        
   2904 ****       219.7500  14.5000  10.5000 Du        
   2905 ****       219.7500  14.5000  10.7500 Du        
   2906 ****       219.7500  14.5000  11.0000 Du        
   2907 ****       219.7500  14.5000  11.2500 Du        
   2908 ****       219.7500  14.7500   9.2500 Du        
   2909 ****       219.7500  14.7500   9.5000 Du        
   2910 ****       219.7500  14.7500   9.7500 Du        
   2911 ****       219.7500  14.7500  10.0000 Du        
   2912 ****       219.7500  14.7500  10.2500 Du        
   2913 ****       219.7500  14.7500  10.5000 Du        
   2914 ****       219.7500  14.7500  10.7500 Du        
   2915 ****       219.7500  14.7500  11.0000 Du        
   2916 ****       219.7500  14.7500  11.2500 Du        
   2917 ****       219.7500  15.0000   9.2500 Du        
   2918 ****       219.7500  15.0000   9.5000 Du        
   2919 ****       219.7500  15.0000   9.7500 Du        
   2920 ****       219.7500  15.0000  10.0000 Du        
   2921 ****       219.7500  15.0000  10.2500 Du        
   2922 ****       219.7500  15.0000  10.5000 Du        
   2923 ****       219.7500  15.0000  10.7500 Du        
   2924 ****       219.7500  15.0000  11.0000 Du        
   2925 ****       219.7500  15.0000  11.2500 Du        
   2926 ****       219.7500  15.2500   9.2500 Du        
   2927 ****       219.7500  15.2500   9.5000 Du        
   2928 ****       219.7500  15.2500   9.7500 Du        
   2929 ****       219.7500  15.2500  10.0000 Du        
   2930 ****       219.7500  15.2500  10.2500 Du        
   2931 ****       219.7500  15.2500  10.5000 Du        
   2932 ****       219.7500  15.2500  10.7500 Du        
   2933 ****       219.7500  15.2500  11.0000 Du        
   2934 ****       219.7500  15.2500  11.2500 Du        
   2935 ****       219.7500  15.5000   9.2500 Du        
   2936 ****       219.7500  15.5000   9.5000 Du        
   2937 ****       219.7500  15.5000   9.7500 Du        
   2938 ****       219.7500  15.5000  10.0000 Du        
   2939 ****       219.7500  15.5000  10.2500 Du        
   2940 ****       219.7500  15.5000  10.5000 Du        
   2941 ****       219.7500  15.5000  10.7500 Du        
   2942 ****       219.7500  15.5000  11.2500 Du        
   2943 ****       219.7500  15.7500   9.0000 Du        
   2944 ****       219.7500  15.7500   9.2500 Du        
   2945 ****       219.7500  15.7500   9.5000 Du        
   2946 ****       219.7500  15.7500   9.7500 Du        
   2947 ****       219.7500  15.7500  10.0000 Du        
   2948 ****       219.7500  15.7500  10.2500 Du        
   2949 ****       219.7500  16.0000   9.0000 Du        
   2950 ****       219.7500  16.0000   9.2500 Du        
   2951 ****       219.7500  16.0000   9.5000 Du        
   2952 ****       219.7500  16.2500   8.7500 Du        
   2953 ****       219.7500  16.2500   9.0000 Du        
   2954 ****       219.7500  16.5000   8.2500 Du        
   2955 ****       219.7500  16.7500   7.7500 Du        
   2956 ****       219.7500  16.7500   8.0000 Du        
   2957 ****       219.7500  16.7500   8.2500 Du        
   2958 ****       219.7500  17.0000   6.7500 Du        
   2959 ****       219.7500  17.0000   7.0000 Du        
   2960 ****       219.7500  17.0000   7.2500 Du        
   2961 ****       219.7500  17.0000   7.5000 Du        
   2962 ****       219.7500  17.0000   7.7500 Du        
   2963 ****       219.7500  17.2500   6.5000 Du        
   2964 ****       219.7500  17.2500   6.7500 Du        
   2965 ****       219.7500  17.2500   7.0000 Du        
   2966 ****       219.7500  17.2500   7.2500 Du        
   2967 ****       219.7500  17.5000   6.2500 Du        
   2968 ****       219.7500  17.5000   6.5000 Du        
   2969 ****       219.7500  17.5000   6.7500 Du        
   2970 ****       219.7500  17.5000  16.7500 Du        
   2971 ****       219.7500  17.5000  17.0000 Du        
   2972 ****       219.7500  17.5000  17.2500 Du        
   2973 ****       219.7500  17.5000  17.5000 Du        
   2974 ****       219.7500  17.7500   6.2500 Du        
   2975 ****       219.7500  17.7500   6.5000 Du        
   2976 ****       219.7500  17.7500  16.7500 Du        
   2977 ****       219.7500  17.7500  17.0000 Du        
   2978 ****       219.7500  17.7500  17.2500 Du        
   2979 ****       219.7500  17.7500  17.5000 Du        
   2980 ****       219.7500  18.0000   6.0000 Du        
   2981 ****       219.7500  18.0000   6.2500 Du        
   2982 ****       219.7500  18.0000  16.7500 Du        
   2983 ****       219.7500  18.0000  17.0000 Du        
   2984 ****       219.7500  18.0000  17.2500 Du        
   2985 ****       219.7500  18.0000  17.5000 Du        
   2986 ****       219.7500  18.2500   6.0000 Du        
   2987 ****       219.7500  18.2500  16.7500 Du        
   2988 ****       219.7500  18.2500  17.0000 Du        
   2989 ****       219.7500  18.2500  17.2500 Du        
   2990 ****       219.7500  18.5000  16.7500 Du        
   2991 ****       219.7500  18.5000  17.0000 Du        
   2992 ****       219.7500  19.0000  25.7500 Du        
   2993 ****       219.7500  19.2500  25.7500 Du        
   2994 ****       219.7500  19.5000  25.7500 Du        
   2995 ****       219.7500  19.7500  25.7500 Du        
   2996 ****       219.7500  20.0000  25.7500 Du        
   2997 ****       219.7500  20.2500  25.7500 Du        
   2998 ****       219.7500  20.5000  25.7500 Du        
   2999 ****       219.7500  20.7500  25.7500 Du        
   3000 ****       219.7500  21.0000  25.7500 Du        
   3001 ****       219.7500  21.2500  25.5000 Du        
   3002 ****       219.7500  21.2500  25.7500 Du        
   3003 ****       219.7500  21.5000  25.5000 Du        
   3004 ****       219.7500  21.5000  25.7500 Du        
   3005 ****       219.7500  21.7500  25.2500 Du        
   3006 ****       219.7500  21.7500  25.5000 Du        
   3007 ****       219.7500  21.7500  25.7500 Du        
   3008 ****       219.7500  22.0000  25.2500 Du        
   3009 ****       219.7500  22.0000  25.5000 Du        
   3010 ****       219.7500  22.0000  25.7500 Du        
   3011 ****       219.7500  22.2500  25.2500 Du        
   3012 ****       219.7500  22.2500  25.7500 Du        
   3013 ****       220.0000   8.2500   9.2500 Du        
   3014 ****       220.0000   8.5000   9.5000 Du        
   3015 ****       220.0000   8.5000   9.7500 Du        
   3016 ****       220.0000   8.5000  10.0000 Du        
   3017 ****       220.0000   8.7500   9.7500 Du        
   3018 ****       220.0000   8.7500  10.0000 Du        
   3019 ****       220.0000   9.0000   9.7500 Du        
   3020 ****       220.0000   9.0000  10.0000 Du        
   3021 ****       220.0000   9.0000  10.2500 Du        
   3022 ****       220.0000   9.2500   9.7500 Du        
   3023 ****       220.0000   9.2500  10.0000 Du        
   3024 ****       220.0000   9.2500  10.2500 Du        
   3025 ****       220.0000   9.5000   9.7500 Du        
   3026 ****       220.0000   9.5000  10.0000 Du        
   3027 ****       220.0000   9.5000  10.2500 Du        
   3028 ****       220.0000   9.7500   9.7500 Du        
   3029 ****       220.0000   9.7500  10.0000 Du        
   3030 ****       220.0000   9.7500  10.2500 Du        
   3031 ****       220.0000  10.0000   9.7500 Du        
   3032 ****       220.0000  10.0000  10.0000 Du        
   3033 ****       220.0000  10.0000  10.2500 Du        
   3034 ****       220.0000  10.2500   9.7500 Du        
   3035 ****       220.0000  10.2500  10.0000 Du        
   3036 ****       220.0000  10.2500  10.2500 Du        
   3037 ****       220.0000  10.2500  23.0000 Du        
   3038 ****       220.0000  10.2500  23.2500 Du        
   3039 ****       220.0000  10.5000  10.0000 Du        
   3040 ****       220.0000  10.5000  10.2500 Du        
   3041 ****       220.0000  10.5000  23.0000 Du        
   3042 ****       220.0000  10.5000  23.2500 Du        
   3043 ****       220.0000  10.7500  10.2500 Du        
   3044 ****       220.0000  10.7500  23.0000 Du        
   3045 ****       220.0000  10.7500  23.2500 Du        
   3046 ****       220.0000  10.7500  23.5000 Du        
   3047 ****       220.0000  10.7500  23.7500 Du        
   3048 ****       220.0000  11.0000  23.2500 Du        
   3049 ****       220.0000  11.0000  23.5000 Du        
   3050 ****       220.0000  11.0000  23.7500 Du        
   3051 ****       220.0000  11.2500  23.2500 Du        
   3052 ****       220.0000  11.2500  23.5000 Du        
   3053 ****       220.0000  11.2500  23.7500 Du        
   3054 ****       220.0000  11.2500  24.0000 Du        
   3055 ****       220.0000  11.2500  24.2500 Du        
   3056 ****       220.0000  11.5000  23.7500 Du        
   3057 ****       220.0000  11.5000  24.0000 Du        
   3058 ****       220.0000  11.5000  24.2500 Du        
   3059 ****       220.0000  13.0000  10.7500 Du        
   3060 ****       220.0000  13.0000  11.0000 Du        
   3061 ****       220.0000  13.2500  10.2500 Du        
   3062 ****       220.0000  13.2500  10.5000 Du        
   3063 ****       220.0000  13.2500  10.7500 Du        
   3064 ****       220.0000  13.2500  11.0000 Du        
   3065 ****       220.0000  13.5000  10.0000 Du        
   3066 ****       220.0000  13.5000  10.2500 Du        
   3067 ****       220.0000  13.5000  10.5000 Du        
   3068 ****       220.0000  13.5000  10.7500 Du        
   3069 ****       220.0000  13.5000  11.0000 Du        
   3070 ****       220.0000  13.7500   9.7500 Du        
   3071 ****       220.0000  13.7500  10.0000 Du        
   3072 ****       220.0000  13.7500  10.2500 Du        
   3073 ****       220.0000  13.7500  10.5000 Du        
   3074 ****       220.0000  13.7500  10.7500 Du        
   3075 ****       220.0000  13.7500  11.0000 Du        
   3076 ****       220.0000  14.0000   9.5000 Du        
   3077 ****       220.0000  14.0000   9.7500 Du        
   3078 ****       220.0000  14.0000  10.0000 Du        
   3079 ****       220.0000  14.0000  10.2500 Du        
   3080 ****       220.0000  14.0000  10.5000 Du        
   3081 ****       220.0000  14.0000  10.7500 Du        
   3082 ****       220.0000  14.0000  11.0000 Du        
   3083 ****       220.0000  14.0000  11.2500 Du        
   3084 ****       220.0000  14.2500   9.5000 Du        
   3085 ****       220.0000  14.2500   9.7500 Du        
   3086 ****       220.0000  14.2500  10.0000 Du        
   3087 ****       220.0000  14.2500  10.2500 Du        
   3088 ****       220.0000  14.2500  10.5000 Du        
   3089 ****       220.0000  14.2500  10.7500 Du        
   3090 ****       220.0000  14.2500  11.0000 Du        
   3091 ****       220.0000  14.2500  11.2500 Du        
   3092 ****       220.0000  14.5000   9.5000 Du        
   3093 ****       220.0000  14.5000   9.7500 Du        
   3094 ****       220.0000  14.5000  10.0000 Du        
   3095 ****       220.0000  14.5000  10.2500 Du        
   3096 ****       220.0000  14.5000  10.5000 Du        
   3097 ****       220.0000  14.5000  10.7500 Du        
   3098 ****       220.0000  14.5000  11.0000 Du        
   3099 ****       220.0000  14.5000  11.2500 Du        
   3100 ****       220.0000  14.7500   9.5000 Du        
   3101 ****       220.0000  14.7500   9.7500 Du        
   3102 ****       220.0000  14.7500  10.0000 Du        
   3103 ****       220.0000  14.7500  10.2500 Du        
   3104 ****       220.0000  14.7500  10.5000 Du        
   3105 ****       220.0000  14.7500  10.7500 Du        
   3106 ****       220.0000  14.7500  11.0000 Du        
   3107 ****       220.0000  14.7500  11.2500 Du        
   3108 ****       220.0000  15.0000   9.5000 Du        
   3109 ****       220.0000  15.0000   9.7500 Du        
   3110 ****       220.0000  15.0000  10.0000 Du        
   3111 ****       220.0000  15.0000  10.2500 Du        
   3112 ****       220.0000  15.0000  10.5000 Du        
   3113 ****       220.0000  15.0000  10.7500 Du        
   3114 ****       220.0000  15.0000  11.0000 Du        
   3115 ****       220.0000  15.0000  11.2500 Du        
   3116 ****       220.0000  15.2500   9.5000 Du        
   3117 ****       220.0000  15.2500   9.7500 Du        
   3118 ****       220.0000  15.2500  10.0000 Du        
   3119 ****       220.0000  15.2500  10.2500 Du        
   3120 ****       220.0000  15.2500  10.5000 Du        
   3121 ****       220.0000  15.2500  10.7500 Du        
   3122 ****       220.0000  15.2500  11.0000 Du        
   3123 ****       220.0000  15.2500  11.2500 Du        
   3124 ****       220.0000  15.5000   9.2500 Du        
   3125 ****       220.0000  15.5000   9.5000 Du        
   3126 ****       220.0000  15.5000   9.7500 Du        
   3127 ****       220.0000  15.5000  10.0000 Du        
   3128 ****       220.0000  15.5000  10.2500 Du        
   3129 ****       220.0000  15.5000  10.5000 Du        
   3130 ****       220.0000  15.5000  10.7500 Du        
   3131 ****       220.0000  15.5000  11.0000 Du        
   3132 ****       220.0000  15.5000  11.2500 Du        
   3133 ****       220.0000  15.7500   9.2500 Du        
   3134 ****       220.0000  15.7500   9.5000 Du        
   3135 ****       220.0000  15.7500   9.7500 Du        
   3136 ****       220.0000  15.7500  10.0000 Du        
   3137 ****       220.0000  15.7500  10.2500 Du        
   3138 ****       220.0000  16.0000   9.2500 Du        
   3139 ****       220.0000  16.0000   9.5000 Du        
   3140 ****       220.0000  16.0000   9.7500 Du        
   3141 ****       220.0000  17.0000   6.7500 Du        
   3142 ****       220.0000  17.2500   6.2500 Du        
   3143 ****       220.0000  17.2500   6.5000 Du        
   3144 ****       220.0000  17.2500   6.7500 Du        
   3145 ****       220.0000  17.2500   7.0000 Du        
   3146 ****       220.0000  17.2500   7.2500 Du        
   3147 ****       220.0000  17.5000   6.0000 Du        
   3148 ****       220.0000  17.5000   6.2500 Du        
   3149 ****       220.0000  17.5000   6.5000 Du        
   3150 ****       220.0000  17.5000   6.7500 Du        
   3151 ****       220.0000  17.5000  17.0000 Du        
   3152 ****       220.0000  17.5000  17.2500 Du        
   3153 ****       220.0000  17.7500   5.7500 Du        
   3154 ****       220.0000  17.7500   6.0000 Du        
   3155 ****       220.0000  17.7500   6.2500 Du        
   3156 ****       220.0000  17.7500   6.5000 Du        
   3157 ****       220.0000  17.7500  16.7500 Du        
   3158 ****       220.0000  17.7500  17.0000 Du        
   3159 ****       220.0000  17.7500  17.2500 Du        
   3160 ****       220.0000  18.0000   5.7500 Du        
   3161 ****       220.0000  18.0000   6.0000 Du        
   3162 ****       220.0000  18.0000   6.2500 Du        
   3163 ****       220.0000  18.0000  16.7500 Du        
   3164 ****       220.0000  18.0000  17.0000 Du        
   3165 ****       220.0000  18.0000  17.2500 Du        
   3166 ****       220.0000  18.2500   5.5000 Du        
   3167 ****       220.0000  18.2500   5.7500 Du        
   3168 ****       220.0000  18.2500   6.0000 Du        
   3169 ****       220.0000  18.2500   6.2500 Du        
   3170 ****       220.0000  18.2500  16.7500 Du        
   3171 ****       220.0000  18.2500  17.0000 Du        
   3172 ****       220.0000  18.2500  17.2500 Du        
   3173 ****       220.0000  18.5000   5.5000 Du        
   3174 ****       220.0000  18.5000   5.7500 Du        
   3175 ****       220.0000  18.5000   6.0000 Du        
   3176 ****       220.0000  18.5000  16.7500 Du        
   3177 ****       220.0000  18.5000  17.0000 Du        
   3178 ****       220.0000  18.7500   5.5000 Du        
   3179 ****       220.0000  18.7500   5.7500 Du        
   3180 ****       220.0000  19.2500  25.7500 Du        
   3181 ****       220.0000  19.5000  25.7500 Du        
   3182 ****       220.0000  19.7500  25.7500 Du        
   3183 ****       220.0000  20.0000  25.7500 Du        
   3184 ****       220.0000  20.2500  25.7500 Du        
   3185 ****       220.0000  20.5000  25.7500 Du        
   3186 ****       220.0000  20.7500  25.7500 Du        
   3187 ****       220.0000  21.0000  25.7500 Du        
   3188 ****       220.0000  21.2500  25.5000 Du        
   3189 ****       220.0000  21.2500  25.7500 Du        
   3190 ****       220.0000  21.5000  25.2500 Du        
   3191 ****       220.0000  21.5000  25.5000 Du        
   3192 ****       220.0000  21.5000  25.7500 Du        
   3193 ****       220.0000  21.7500  25.2500 Du        
   3194 ****       220.0000  21.7500  25.5000 Du        
   3195 ****       220.0000  21.7500  25.7500 Du        
   3196 ****       220.0000  22.0000  25.0000 Du        
   3197 ****       220.0000  22.0000  25.2500 Du        
   3198 ****       220.0000  22.0000  25.5000 Du        
   3199 ****       220.0000  22.0000  25.7500 Du        
   3200 ****       220.0000  22.2500  25.0000 Du        
   3201 ****       220.0000  22.2500  25.2500 Du        
   3202 ****       220.0000  22.2500  25.5000 Du        
   3203 ****       220.0000  22.2500  25.7500 Du        
   3204 ****       220.2500   7.7500   9.5000 Du        
   3205 ****       220.2500   8.0000   9.5000 Du        
   3206 ****       220.2500   8.0000   9.7500 Du        
   3207 ****       220.2500   8.2500   9.0000 Du        
   3208 ****       220.2500   8.2500   9.2500 Du        
   3209 ****       220.2500   8.2500   9.5000 Du        
   3210 ****       220.2500   8.2500   9.7500 Du        
   3211 ****       220.2500   8.5000   9.2500 Du        
   3212 ****       220.2500   8.5000   9.5000 Du        
   3213 ****       220.2500   8.5000   9.7500 Du        
   3214 ****       220.2500   8.5000  10.0000 Du        
   3215 ****       220.2500   8.7500   9.2500 Du        
   3216 ****       220.2500   8.7500   9.5000 Du        
   3217 ****       220.2500   8.7500   9.7500 Du        
   3218 ****       220.2500   8.7500  10.0000 Du        
   3219 ****       220.2500   8.7500  10.2500 Du        
   3220 ****       220.2500   9.0000   9.2500 Du        
   3221 ****       220.2500   9.0000   9.5000 Du        
   3222 ****       220.2500   9.0000   9.7500 Du        
   3223 ****       220.2500   9.0000  10.0000 Du        
   3224 ****       220.2500   9.0000  10.2500 Du        
   3225 ****       220.2500   9.2500   9.5000 Du        
   3226 ****       220.2500   9.2500   9.7500 Du        
   3227 ****       220.2500   9.2500  10.0000 Du        
   3228 ****       220.2500   9.2500  10.2500 Du        
   3229 ****       220.2500   9.5000   9.5000 Du        
   3230 ****       220.2500   9.5000   9.7500 Du        
   3231 ****       220.2500   9.5000  10.0000 Du        
   3232 ****       220.2500   9.5000  10.2500 Du        
   3233 ****       220.2500   9.7500   9.5000 Du        
   3234 ****       220.2500   9.7500   9.7500 Du        
   3235 ****       220.2500   9.7500  10.0000 Du        
   3236 ****       220.2500   9.7500  10.2500 Du        
   3237 ****       220.2500  10.0000   9.7500 Du        
   3238 ****       220.2500  10.0000  10.0000 Du        
   3239 ****       220.2500  10.0000  10.2500 Du        
   3240 ****       220.2500  10.2500  10.0000 Du        
   3241 ****       220.2500  10.2500  10.2500 Du        
   3242 ****       220.2500  10.2500  23.2500 Du        
   3243 ****       220.2500  10.2500  23.5000 Du        
   3244 ****       220.2500  10.2500  23.7500 Du        
   3245 ****       220.2500  10.5000  23.2500 Du        
   3246 ****       220.2500  10.5000  23.5000 Du        
   3247 ****       220.2500  10.5000  23.7500 Du        
   3248 ****       220.2500  10.7500  23.2500 Du        
   3249 ****       220.2500  10.7500  23.5000 Du        
   3250 ****       220.2500  10.7500  23.7500 Du        
   3251 ****       220.2500  10.7500  24.0000 Du        
   3252 ****       220.2500  10.7500  24.2500 Du        
   3253 ****       220.2500  11.0000  23.5000 Du        
   3254 ****       220.2500  11.0000  23.7500 Du        
   3255 ****       220.2500  11.0000  24.0000 Du        
   3256 ****       220.2500  11.0000  24.2500 Du        
   3257 ****       220.2500  11.2500  23.5000 Du        
   3258 ****       220.2500  11.2500  23.7500 Du        
   3259 ****       220.2500  11.2500  24.0000 Du        
   3260 ****       220.2500  11.2500  24.2500 Du        
   3261 ****       220.2500  11.2500  24.5000 Du        
   3262 ****       220.2500  11.2500  24.7500 Du        
   3263 ****       220.2500  11.5000  24.0000 Du        
   3264 ****       220.2500  11.5000  24.2500 Du        
   3265 ****       220.2500  11.5000  24.5000 Du        
   3266 ****       220.2500  11.5000  24.7500 Du        
   3267 ****       220.2500  13.5000  11.0000 Du        
   3268 ****       220.2500  13.7500  10.2500 Du        
   3269 ****       220.2500  13.7500  10.5000 Du        
   3270 ****       220.2500  13.7500  10.7500 Du        
   3271 ****       220.2500  13.7500  11.0000 Du        
   3272 ****       220.2500  14.0000  10.0000 Du        
   3273 ****       220.2500  14.0000  10.2500 Du        
   3274 ****       220.2500  14.0000  10.5000 Du        
   3275 ****       220.2500  14.0000  10.7500 Du        
   3276 ****       220.2500  14.0000  11.0000 Du        
   3277 ****       220.2500  14.0000  11.2500 Du        
   3278 ****       220.2500  14.2500   9.7500 Du        
   3279 ****       220.2500  14.2500  10.0000 Du        
   3280 ****       220.2500  14.2500  10.2500 Du        
   3281 ****       220.2500  14.2500  10.5000 Du        
   3282 ****       220.2500  14.2500  10.7500 Du        
   3283 ****       220.2500  14.2500  11.0000 Du        
   3284 ****       220.2500  14.2500  11.2500 Du        
   3285 ****       220.2500  14.5000   9.7500 Du        
   3286 ****       220.2500  14.5000  10.0000 Du        
   3287 ****       220.2500  14.5000  10.2500 Du        
   3288 ****       220.2500  14.5000  10.5000 Du        
   3289 ****       220.2500  14.5000  10.7500 Du        
   3290 ****       220.2500  14.5000  11.0000 Du        
   3291 ****       220.2500  14.5000  11.2500 Du        
   3292 ****       220.2500  14.7500   9.7500 Du        
   3293 ****       220.2500  14.7500  10.0000 Du        
   3294 ****       220.2500  14.7500  10.2500 Du        
   3295 ****       220.2500  14.7500  10.5000 Du        
   3296 ****       220.2500  14.7500  10.7500 Du        
   3297 ****       220.2500  14.7500  11.0000 Du        
   3298 ****       220.2500  14.7500  11.2500 Du        
   3299 ****       220.2500  15.0000   9.7500 Du        
   3300 ****       220.2500  15.0000  10.0000 Du        
   3301 ****       220.2500  15.0000  10.2500 Du        
   3302 ****       220.2500  15.0000  10.5000 Du        
   3303 ****       220.2500  15.0000  10.7500 Du        
   3304 ****       220.2500  15.0000  11.0000 Du        
   3305 ****       220.2500  15.0000  11.2500 Du        
   3306 ****       220.2500  15.2500   9.7500 Du        
   3307 ****       220.2500  15.2500  10.0000 Du        
   3308 ****       220.2500  15.2500  10.2500 Du        
   3309 ****       220.2500  15.2500  10.5000 Du        
   3310 ****       220.2500  15.2500  10.7500 Du        
   3311 ****       220.2500  15.2500  11.0000 Du        
   3312 ****       220.2500  15.2500  11.2500 Du        
   3313 ****       220.2500  15.5000   9.5000 Du        
   3314 ****       220.2500  15.5000   9.7500 Du        
   3315 ****       220.2500  15.5000  10.0000 Du        
   3316 ****       220.2500  15.5000  10.2500 Du        
   3317 ****       220.2500  15.5000  10.5000 Du        
   3318 ****       220.2500  15.5000  10.7500 Du        
   3319 ****       220.2500  15.5000  11.0000 Du        
   3320 ****       220.2500  15.5000  11.2500 Du        
   3321 ****       220.2500  15.7500   9.5000 Du        
   3322 ****       220.2500  15.7500   9.7500 Du        
   3323 ****       220.2500  15.7500  10.0000 Du        
   3324 ****       220.2500  15.7500  10.2500 Du        
   3325 ****       220.2500  17.2500   6.0000 Du        
   3326 ****       220.2500  17.2500   6.2500 Du        
   3327 ****       220.2500  17.2500   6.5000 Du        
   3328 ****       220.2500  17.2500   6.7500 Du        
   3329 ****       220.2500  17.5000   5.7500 Du        
   3330 ****       220.2500  17.5000   6.0000 Du        
   3331 ****       220.2500  17.5000   6.2500 Du        
   3332 ****       220.2500  17.5000   6.5000 Du        
   3333 ****       220.2500  17.5000   6.7500 Du        
   3334 ****       220.2500  17.7500   5.7500 Du        
   3335 ****       220.2500  17.7500   6.0000 Du        
   3336 ****       220.2500  17.7500   6.2500 Du        
   3337 ****       220.2500  17.7500   6.5000 Du        
   3338 ****       220.2500  17.7500   6.7500 Du        
   3339 ****       220.2500  17.7500  17.0000 Du        
   3340 ****       220.2500  17.7500  17.2500 Du        
   3341 ****       220.2500  18.0000   5.5000 Du        
   3342 ****       220.2500  18.0000   5.7500 Du        
   3343 ****       220.2500  18.0000   6.0000 Du        
   3344 ****       220.2500  18.0000   6.2500 Du        
   3345 ****       220.2500  18.0000   6.5000 Du        
   3346 ****       220.2500  18.0000  17.0000 Du        
   3347 ****       220.2500  18.2500   5.5000 Du        
   3348 ****       220.2500  18.2500   5.7500 Du        
   3349 ****       220.2500  18.2500   6.0000 Du        
   3350 ****       220.2500  18.2500   6.2500 Du        
   3351 ****       220.2500  18.2500  17.0000 Du        
   3352 ****       220.2500  18.5000   5.5000 Du        
   3353 ****       220.2500  18.5000   5.7500 Du        
   3354 ****       220.2500  18.5000   6.0000 Du        
   3355 ****       220.2500  18.7500   5.2500 Du        
   3356 ****       220.2500  18.7500   5.5000 Du        
   3357 ****       220.2500  18.7500   5.7500 Du        
   3358 ****       220.2500  18.7500   6.0000 Du        
   3359 ****       220.2500  19.0000   5.5000 Du        
   3360 ****       220.2500  19.0000   5.7500 Du        
   3361 ****       220.2500  20.0000  25.7500 Du        
   3362 ****       220.2500  20.2500  25.7500 Du        
   3363 ****       220.2500  20.7500  25.7500 Du        
   3364 ****       220.2500  21.0000  25.7500 Du        
   3365 ****       220.2500  21.2500  25.5000 Du        
   3366 ****       220.2500  21.2500  25.7500 Du        
   3367 ****       220.2500  21.5000  25.5000 Du        
   3368 ****       220.2500  21.5000  25.7500 Du        
   3369 ****       220.2500  21.7500  25.2500 Du        
   3370 ****       220.2500  21.7500  25.5000 Du        
   3371 ****       220.2500  21.7500  25.7500 Du        
   3372 ****       220.2500  22.0000  25.0000 Du        
   3373 ****       220.2500  22.0000  25.2500 Du        
   3374 ****       220.2500  22.0000  25.5000 Du        
   3375 ****       220.2500  22.0000  25.7500 Du        
   3376 ****       220.2500  22.2500  24.7500 Du        
   3377 ****       220.2500  22.2500  25.0000 Du        
   3378 ****       220.2500  22.2500  25.2500 Du        
   3379 ****       220.2500  22.2500  25.5000 Du        
   3380 ****       220.2500  22.2500  25.7500 Du        
   3381 ****       220.2500  22.5000  24.7500 Du        
   3382 ****       220.2500  22.5000  25.0000 Du        
   3383 ****       220.2500  22.5000  25.2500 Du        
   3384 ****       220.2500  22.5000  25.5000 Du        
   3385 ****       220.2500  22.5000  25.7500 Du        
   3386 ****       220.2500  22.7500  25.2500 Du        
   3387 ****       220.5000   7.7500   9.5000 Du        
   3388 ****       220.5000   7.7500   9.7500 Du        
   3389 ****       220.5000   8.0000   9.5000 Du        
   3390 ****       220.5000   8.0000   9.7500 Du        
   3391 ****       220.5000   8.2500   9.0000 Du        
   3392 ****       220.5000   8.2500   9.2500 Du        
   3393 ****       220.5000   8.2500   9.5000 Du        
   3394 ****       220.5000   8.2500   9.7500 Du        
   3395 ****       220.5000   8.2500  10.0000 Du        
   3396 ****       220.5000   8.5000   9.0000 Du        
   3397 ****       220.5000   8.5000   9.2500 Du        
   3398 ****       220.5000   8.5000   9.5000 Du        
   3399 ****       220.5000   8.5000   9.7500 Du        
   3400 ****       220.5000   8.5000  10.0000 Du        
   3401 ****       220.5000   8.7500   9.0000 Du        
   3402 ****       220.5000   8.7500   9.2500 Du        
   3403 ****       220.5000   8.7500   9.5000 Du        
   3404 ****       220.5000   8.7500   9.7500 Du        
   3405 ****       220.5000   8.7500  10.0000 Du        
   3406 ****       220.5000   8.7500  10.2500 Du        
   3407 ****       220.5000   9.0000   9.2500 Du        
   3408 ****       220.5000   9.0000   9.5000 Du        
   3409 ****       220.5000   9.0000   9.7500 Du        
   3410 ****       220.5000   9.0000  10.0000 Du        
   3411 ****       220.5000   9.0000  10.2500 Du        
   3412 ****       220.5000   9.2500   9.2500 Du        
   3413 ****       220.5000   9.2500   9.5000 Du        
   3414 ****       220.5000   9.2500   9.7500 Du        
   3415 ****       220.5000   9.2500  10.0000 Du        
   3416 ****       220.5000   9.2500  10.2500 Du        
   3417 ****       220.5000   9.5000   9.2500 Du        
   3418 ****       220.5000   9.5000   9.5000 Du        
   3419 ****       220.5000   9.5000   9.7500 Du        
   3420 ****       220.5000   9.5000  10.0000 Du        
   3421 ****       220.5000   9.5000  10.2500 Du        
   3422 ****       220.5000   9.7500   9.5000 Du        
   3423 ****       220.5000   9.7500   9.7500 Du        
   3424 ****       220.5000   9.7500  10.0000 Du        
   3425 ****       220.5000   9.7500  10.2500 Du        
   3426 ****       220.5000  10.0000  10.0000 Du        
   3427 ****       220.5000  10.0000  10.2500 Du        
   3428 ****       220.5000  10.2500  23.5000 Du        
   3429 ****       220.5000  10.2500  23.7500 Du        
   3430 ****       220.5000  10.5000  23.5000 Du        
   3431 ****       220.5000  10.5000  23.7500 Du        
   3432 ****       220.5000  10.7500  23.5000 Du        
   3433 ****       220.5000  10.7500  23.7500 Du        
   3434 ****       220.5000  10.7500  24.0000 Du        
   3435 ****       220.5000  10.7500  24.2500 Du        
   3436 ****       220.5000  11.0000  23.7500 Du        
   3437 ****       220.5000  11.0000  24.0000 Du        
   3438 ****       220.5000  11.0000  24.2500 Du        
   3439 ****       220.5000  11.2500  23.7500 Du        
   3440 ****       220.5000  11.2500  24.0000 Du        
   3441 ****       220.5000  11.2500  24.2500 Du        
   3442 ****       220.5000  11.2500  24.5000 Du        
   3443 ****       220.5000  11.2500  24.7500 Du        
   3444 ****       220.5000  11.5000  24.0000 Du        
   3445 ****       220.5000  11.5000  24.2500 Du        
   3446 ****       220.5000  11.5000  24.5000 Du        
   3447 ****       220.5000  11.5000  24.7500 Du        
   3448 ****       220.5000  11.7500  24.5000 Du        
   3449 ****       220.5000  11.7500  24.7500 Du        
   3450 ****       220.5000  14.0000  10.7500 Du        
   3451 ****       220.5000  14.0000  11.0000 Du        
   3452 ****       220.5000  14.2500  10.0000 Du        
   3453 ****       220.5000  14.2500  10.2500 Du        
   3454 ****       220.5000  14.2500  10.5000 Du        
   3455 ****       220.5000  14.2500  10.7500 Du        
   3456 ****       220.5000  14.2500  11.0000 Du        
   3457 ****       220.5000  14.5000  10.0000 Du        
   3458 ****       220.5000  14.5000  10.2500 Du        
   3459 ****       220.5000  14.5000  10.5000 Du        
   3460 ****       220.5000  14.5000  10.7500 Du        
   3461 ****       220.5000  14.5000  11.0000 Du        
   3462 ****       220.5000  14.5000  11.2500 Du        
   3463 ****       220.5000  14.7500   9.7500 Du        
   3464 ****       220.5000  14.7500  10.0000 Du        
   3465 ****       220.5000  14.7500  10.2500 Du        
   3466 ****       220.5000  14.7500  10.5000 Du        
   3467 ****       220.5000  14.7500  10.7500 Du        
   3468 ****       220.5000  14.7500  11.0000 Du        
   3469 ****       220.5000  14.7500  11.2500 Du        
   3470 ****       220.5000  15.0000   9.7500 Du        
   3471 ****       220.5000  15.0000  10.0000 Du        
   3472 ****       220.5000  15.0000  10.2500 Du        
   3473 ****       220.5000  15.0000  10.5000 Du        
   3474 ****       220.5000  15.0000  10.7500 Du        
   3475 ****       220.5000  15.0000  11.0000 Du        
   3476 ****       220.5000  15.0000  11.2500 Du        
   3477 ****       220.5000  15.2500   9.7500 Du        
   3478 ****       220.5000  15.2500  10.0000 Du        
   3479 ****       220.5000  15.2500  10.2500 Du        
   3480 ****       220.5000  15.2500  10.5000 Du        
   3481 ****       220.5000  15.2500  10.7500 Du        
   3482 ****       220.5000  15.2500  11.0000 Du        
   3483 ****       220.5000  15.2500  11.2500 Du        
   3484 ****       220.5000  15.5000   9.7500 Du        
   3485 ****       220.5000  15.5000  10.0000 Du        
   3486 ****       220.5000  15.5000  10.2500 Du        
   3487 ****       220.5000  15.5000  10.5000 Du        
   3488 ****       220.5000  15.5000  10.7500 Du        
   3489 ****       220.5000  15.5000  11.0000 Du        
   3490 ****       220.5000  15.5000  11.2500 Du        
   3491 ****       220.5000  15.7500  10.0000 Du        
   3492 ****       220.5000  15.7500  10.2500 Du        
   3493 ****       220.5000  17.5000   5.7500 Du        
   3494 ****       220.5000  17.5000   6.0000 Du        
   3495 ****       220.5000  17.5000   6.2500 Du        
   3496 ****       220.5000  17.7500   5.7500 Du        
   3497 ****       220.5000  17.7500   6.0000 Du        
   3498 ****       220.5000  17.7500   6.2500 Du        
   3499 ****       220.5000  17.7500   6.5000 Du        
   3500 ****       220.5000  18.0000   5.5000 Du        
   3501 ****       220.5000  18.0000   5.7500 Du        
   3502 ****       220.5000  18.0000   6.0000 Du        
   3503 ****       220.5000  18.0000   6.2500 Du        
   3504 ****       220.5000  18.0000   6.5000 Du        
   3505 ****       220.5000  18.2500   5.5000 Du        
   3506 ****       220.5000  18.2500   5.7500 Du        
   3507 ****       220.5000  18.2500   6.0000 Du        
   3508 ****       220.5000  18.2500   6.2500 Du        
   3509 ****       220.5000  18.5000   5.5000 Du        
   3510 ****       220.5000  18.5000   5.7500 Du        
   3511 ****       220.5000  18.5000   6.0000 Du        
   3512 ****       220.5000  18.5000   6.2500 Du        
   3513 ****       220.5000  18.7500   5.2500 Du        
   3514 ****       220.5000  18.7500   5.5000 Du        
   3515 ****       220.5000  18.7500   5.7500 Du        
   3516 ****       220.5000  18.7500   6.0000 Du        
   3517 ****       220.5000  19.0000   5.2500 Du        
   3518 ****       220.5000  19.0000   5.5000 Du        
   3519 ****       220.5000  19.0000   5.7500 Du        
   3520 ****       220.5000  19.0000   6.0000 Du        
   3521 ****       220.5000  19.2500   5.5000 Du        
   3522 ****       220.5000  19.2500   5.7500 Du        
   3523 ****       220.5000  20.5000  25.7500 Du        
   3524 ****       220.5000  20.7500  25.7500 Du        
   3525 ****       220.5000  21.0000  25.7500 Du        
   3526 ****       220.5000  21.2500  25.5000 Du        
   3527 ****       220.5000  21.2500  25.7500 Du        
   3528 ****       220.5000  21.5000  25.5000 Du        
   3529 ****       220.5000  21.5000  25.7500 Du        
   3530 ****       220.5000  21.7500  25.2500 Du        
   3531 ****       220.5000  21.7500  25.5000 Du        
   3532 ****       220.5000  21.7500  25.7500 Du        
   3533 ****       220.5000  22.0000  25.0000 Du        
   3534 ****       220.5000  22.0000  25.2500 Du        
   3535 ****       220.5000  22.0000  25.5000 Du        
   3536 ****       220.5000  22.0000  25.7500 Du        
   3537 ****       220.5000  22.2500  24.7500 Du        
   3538 ****       220.5000  22.2500  25.0000 Du        
   3539 ****       220.5000  22.2500  25.2500 Du        
   3540 ****       220.5000  22.2500  25.5000 Du        
   3541 ****       220.5000  22.2500  25.7500 Du        
   3542 ****       220.5000  22.5000  24.7500 Du        
   3543 ****       220.5000  22.5000  25.0000 Du        
   3544 ****       220.5000  22.5000  25.2500 Du        
   3545 ****       220.5000  22.5000  25.5000 Du        
   3546 ****       220.5000  22.5000  25.7500 Du        
   3547 ****       220.5000  22.7500  24.5000 Du        
   3548 ****       220.5000  22.7500  24.7500 Du        
   3549 ****       220.5000  22.7500  25.0000 Du        
   3550 ****       220.5000  22.7500  25.2500 Du        
   3551 ****       220.5000  22.7500  25.5000 Du        
   3552 ****       220.5000  22.7500  25.7500 Du        
   3553 ****       220.5000  23.0000  24.7500 Du        
   3554 ****       220.5000  23.0000  25.0000 Du        
   3555 ****       220.5000  23.0000  25.2500 Du        
   3556 ****       220.5000  23.0000  25.5000 Du        
   3557 ****       220.5000  23.0000  25.7500 Du        
   3558 ****       220.7500   7.7500   9.0000 Du        
   3559 ****       220.7500   7.7500   9.2500 Du        
   3560 ****       220.7500   7.7500   9.5000 Du        
   3561 ****       220.7500   7.7500   9.7500 Du        
   3562 ****       220.7500   8.0000   9.0000 Du        
   3563 ****       220.7500   8.0000   9.2500 Du        
   3564 ****       220.7500   8.0000   9.5000 Du        
   3565 ****       220.7500   8.0000   9.7500 Du        
   3566 ****       220.7500   8.0000  10.0000 Du        
   3567 ****       220.7500   8.2500   9.0000 Du        
   3568 ****       220.7500   8.2500   9.2500 Du        
   3569 ****       220.7500   8.2500   9.5000 Du        
   3570 ****       220.7500   8.2500   9.7500 Du        
   3571 ****       220.7500   8.2500  10.0000 Du        
   3572 ****       220.7500   8.5000   9.0000 Du        
   3573 ****       220.7500   8.5000   9.2500 Du        
   3574 ****       220.7500   8.5000   9.5000 Du        
   3575 ****       220.7500   8.5000   9.7500 Du        
   3576 ****       220.7500   8.5000  10.0000 Du        
   3577 ****       220.7500   8.5000  10.2500 Du        
   3578 ****       220.7500   8.7500   9.0000 Du        
   3579 ****       220.7500   8.7500   9.2500 Du        
   3580 ****       220.7500   8.7500   9.5000 Du        
   3581 ****       220.7500   8.7500   9.7500 Du        
   3582 ****       220.7500   8.7500  10.0000 Du        
   3583 ****       220.7500   8.7500  10.2500 Du        
   3584 ****       220.7500   9.0000   9.0000 Du        
   3585 ****       220.7500   9.0000   9.2500 Du        
   3586 ****       220.7500   9.0000   9.5000 Du        
   3587 ****       220.7500   9.0000   9.7500 Du        
   3588 ****       220.7500   9.0000  10.0000 Du        
   3589 ****       220.7500   9.0000  10.2500 Du        
   3590 ****       220.7500   9.2500   9.2500 Du        
   3591 ****       220.7500   9.2500   9.5000 Du        
   3592 ****       220.7500   9.2500   9.7500 Du        
   3593 ****       220.7500   9.2500  10.0000 Du        
   3594 ****       220.7500   9.2500  10.2500 Du        
   3595 ****       220.7500   9.5000   9.2500 Du        
   3596 ****       220.7500   9.5000   9.5000 Du        
   3597 ****       220.7500   9.5000   9.7500 Du        
   3598 ****       220.7500   9.5000  10.0000 Du        
   3599 ****       220.7500   9.5000  10.2500 Du        
   3600 ****       220.7500   9.7500   9.7500 Du        
   3601 ****       220.7500   9.7500  10.0000 Du        
   3602 ****       220.7500  10.2500  23.5000 Du        
   3603 ****       220.7500  10.2500  23.7500 Du        
   3604 ****       220.7500  10.5000  23.7500 Du        
   3605 ****       220.7500  10.7500  23.7500 Du        
   3606 ****       220.7500  10.7500  24.0000 Du        
   3607 ****       220.7500  10.7500  24.2500 Du        
   3608 ****       220.7500  11.0000  24.0000 Du        
   3609 ****       220.7500  11.0000  24.2500 Du        
   3610 ****       220.7500  11.2500  24.0000 Du        
   3611 ****       220.7500  11.2500  24.2500 Du        
   3612 ****       220.7500  11.2500  24.5000 Du        
   3613 ****       220.7500  11.2500  24.7500 Du        
   3614 ****       220.7500  11.5000  24.0000 Du        
   3615 ****       220.7500  11.5000  24.2500 Du        
   3616 ****       220.7500  11.5000  24.5000 Du        
   3617 ****       220.7500  11.5000  24.7500 Du        
   3618 ****       220.7500  11.7500  24.2500 Du        
   3619 ****       220.7500  11.7500  24.5000 Du        
   3620 ****       220.7500  11.7500  24.7500 Du        
   3621 ****       220.7500  14.0000  10.7500 Du        
   3622 ****       220.7500  14.0000  11.0000 Du        
   3623 ****       220.7500  14.2500  10.5000 Du        
   3624 ****       220.7500  14.2500  10.7500 Du        
   3625 ****       220.7500  14.2500  11.0000 Du        
   3626 ****       220.7500  14.2500  11.2500 Du        
   3627 ****       220.7500  14.5000  10.0000 Du        
   3628 ****       220.7500  14.5000  10.2500 Du        
   3629 ****       220.7500  14.5000  10.5000 Du        
   3630 ****       220.7500  14.5000  10.7500 Du        
   3631 ****       220.7500  14.5000  11.0000 Du        
   3632 ****       220.7500  14.5000  11.2500 Du        
   3633 ****       220.7500  14.7500  10.0000 Du        
   3634 ****       220.7500  14.7500  10.2500 Du        
   3635 ****       220.7500  14.7500  10.5000 Du        
   3636 ****       220.7500  14.7500  10.7500 Du        
   3637 ****       220.7500  14.7500  11.0000 Du        
   3638 ****       220.7500  14.7500  11.2500 Du        
   3639 ****       220.7500  15.0000  10.0000 Du        
   3640 ****       220.7500  15.0000  10.2500 Du        
   3641 ****       220.7500  15.0000  10.5000 Du        
   3642 ****       220.7500  15.0000  10.7500 Du        
   3643 ****       220.7500  15.0000  11.0000 Du        
   3644 ****       220.7500  15.0000  11.2500 Du        
   3645 ****       220.7500  15.0000  11.5000 Du        
   3646 ****       220.7500  15.2500  10.0000 Du        
   3647 ****       220.7500  15.2500  10.2500 Du        
   3648 ****       220.7500  15.2500  10.5000 Du        
   3649 ****       220.7500  15.2500  10.7500 Du        
   3650 ****       220.7500  15.2500  11.0000 Du        
   3651 ****       220.7500  15.2500  11.2500 Du        
   3652 ****       220.7500  15.5000  10.0000 Du        
   3653 ****       220.7500  15.5000  10.2500 Du        
   3654 ****       220.7500  15.5000  10.5000 Du        
   3655 ****       220.7500  15.5000  10.7500 Du        
   3656 ****       220.7500  15.5000  11.0000 Du        
   3657 ****       220.7500  15.5000  11.2500 Du        
   3658 ****       220.7500  18.0000   5.7500 Du        
   3659 ****       220.7500  18.0000   6.0000 Du        
   3660 ****       220.7500  18.2500   5.5000 Du        
   3661 ****       220.7500  18.2500   5.7500 Du        
   3662 ****       220.7500  18.2500   6.0000 Du        
   3663 ****       220.7500  18.5000   5.5000 Du        
   3664 ****       220.7500  18.5000   5.7500 Du        
   3665 ****       220.7500  18.5000   6.0000 Du        
   3666 ****       220.7500  18.7500   5.2500 Du        
   3667 ****       220.7500  18.7500   5.5000 Du        
   3668 ****       220.7500  18.7500   5.7500 Du        
   3669 ****       220.7500  18.7500   6.0000 Du        
   3670 ****       220.7500  19.0000   5.2500 Du        
   3671 ****       220.7500  19.0000   5.5000 Du        
   3672 ****       220.7500  19.0000   5.7500 Du        
   3673 ****       220.7500  19.0000   6.0000 Du        
   3674 ****       220.7500  19.2500   5.2500 Du        
   3675 ****       220.7500  19.2500   5.5000 Du        
   3676 ****       220.7500  19.2500   5.7500 Du        
   3677 ****       220.7500  20.7500  25.7500 Du        
   3678 ****       220.7500  21.0000  25.7500 Du        
   3679 ****       220.7500  21.2500  25.5000 Du        
   3680 ****       220.7500  21.2500  25.7500 Du        
   3681 ****       220.7500  21.5000  25.5000 Du        
   3682 ****       220.7500  21.5000  25.7500 Du        
   3683 ****       220.7500  21.7500  25.2500 Du        
   3684 ****       220.7500  21.7500  25.5000 Du        
   3685 ****       220.7500  21.7500  25.7500 Du        
   3686 ****       220.7500  22.0000  25.0000 Du        
   3687 ****       220.7500  22.0000  25.2500 Du        
   3688 ****       220.7500  22.0000  25.5000 Du        
   3689 ****       220.7500  22.0000  25.7500 Du        
   3690 ****       220.7500  22.2500  24.7500 Du        
   3691 ****       220.7500  22.2500  25.0000 Du        
   3692 ****       220.7500  22.2500  25.2500 Du        
   3693 ****       220.7500  22.2500  25.5000 Du        
   3694 ****       220.7500  22.2500  25.7500 Du        
   3695 ****       220.7500  22.5000  24.5000 Du        
   3696 ****       220.7500  22.5000  24.7500 Du        
   3697 ****       220.7500  22.5000  25.0000 Du        
   3698 ****       220.7500  22.5000  25.2500 Du        
   3699 ****       220.7500  22.5000  25.5000 Du        
   3700 ****       220.7500  22.5000  25.7500 Du        
   3701 ****       220.7500  22.7500  24.2500 Du        
   3702 ****       220.7500  22.7500  24.5000 Du        
   3703 ****       220.7500  22.7500  24.7500 Du        
   3704 ****       220.7500  22.7500  25.0000 Du        
   3705 ****       220.7500  22.7500  25.2500 Du        
   3706 ****       220.7500  22.7500  25.5000 Du        
   3707 ****       220.7500  22.7500  25.7500 Du        
   3708 ****       220.7500  23.0000  24.2500 Du        
   3709 ****       220.7500  23.0000  24.5000 Du        
   3710 ****       220.7500  23.0000  24.7500 Du        
   3711 ****       220.7500  23.0000  25.0000 Du        
   3712 ****       220.7500  23.0000  25.2500 Du        
   3713 ****       220.7500  23.0000  25.5000 Du        
   3714 ****       220.7500  23.0000  25.7500 Du        
   3715 ****       220.7500  23.2500  24.7500 Du        
   3716 ****       220.7500  23.2500  25.0000 Du        
   3717 ****       220.7500  23.2500  25.2500 Du        
   3718 ****       220.7500  23.2500  25.5000 Du        
   3719 ****       220.7500  23.2500  25.7500 Du        
   3720 ****       220.7500  23.5000  25.0000 Du        
   3721 ****       220.7500  23.5000  25.2500 Du        
   3722 ****       221.0000   7.7500   9.0000 Du        
   3723 ****       221.0000   7.7500   9.2500 Du        
   3724 ****       221.0000   7.7500   9.5000 Du        
   3725 ****       221.0000   7.7500   9.7500 Du        
   3726 ****       221.0000   8.0000   9.0000 Du        
   3727 ****       221.0000   8.0000   9.2500 Du        
   3728 ****       221.0000   8.0000   9.5000 Du        
   3729 ****       221.0000   8.0000   9.7500 Du        
   3730 ****       221.0000   8.0000  10.0000 Du        
   3731 ****       221.0000   8.2500   9.0000 Du        
   3732 ****       221.0000   8.2500   9.2500 Du        
   3733 ****       221.0000   8.2500   9.5000 Du        
   3734 ****       221.0000   8.2500   9.7500 Du        
   3735 ****       221.0000   8.2500  10.0000 Du        
   3736 ****       221.0000   8.2500  10.2500 Du        
   3737 ****       221.0000   8.5000   9.0000 Du        
   3738 ****       221.0000   8.5000   9.2500 Du        
   3739 ****       221.0000   8.5000   9.5000 Du        
   3740 ****       221.0000   8.5000   9.7500 Du        
   3741 ****       221.0000   8.5000  10.0000 Du        
   3742 ****       221.0000   8.5000  10.2500 Du        
   3743 ****       221.0000   8.7500   9.0000 Du        
   3744 ****       221.0000   8.7500   9.2500 Du        
   3745 ****       221.0000   8.7500   9.5000 Du        
   3746 ****       221.0000   8.7500   9.7500 Du        
   3747 ****       221.0000   8.7500  10.0000 Du        
   3748 ****       221.0000   8.7500  10.2500 Du        
   3749 ****       221.0000   9.0000   9.0000 Du        
   3750 ****       221.0000   9.0000   9.2500 Du        
   3751 ****       221.0000   9.0000   9.5000 Du        
   3752 ****       221.0000   9.0000   9.7500 Du        
   3753 ****       221.0000   9.0000  10.0000 Du        
   3754 ****       221.0000   9.0000  10.2500 Du        
   3755 ****       221.0000   9.2500   9.2500 Du        
   3756 ****       221.0000   9.2500   9.5000 Du        
   3757 ****       221.0000   9.2500   9.7500 Du        
   3758 ****       221.0000   9.2500  10.0000 Du        
   3759 ****       221.0000   9.2500  10.2500 Du        
   3760 ****       221.0000   9.5000   9.2500 Du        
   3761 ****       221.0000   9.5000   9.5000 Du        
   3762 ****       221.0000   9.5000   9.7500 Du        
   3763 ****       221.0000   9.5000  10.0000 Du        
   3764 ****       221.0000   9.5000  10.2500 Du        
   3765 ****       221.0000  10.2500  23.7500 Du        
   3766 ****       221.0000  10.7500  24.0000 Du        
   3767 ****       221.0000  10.7500  24.2500 Du        
   3768 ****       221.0000  11.0000  24.0000 Du        
   3769 ****       221.0000  11.0000  24.2500 Du        
   3770 ****       221.0000  11.2500  24.2500 Du        
   3771 ****       221.0000  11.2500  24.5000 Du        
   3772 ****       221.0000  11.2500  24.7500 Du        
   3773 ****       221.0000  11.5000  24.2500 Du        
   3774 ****       221.0000  11.5000  24.5000 Du        
   3775 ****       221.0000  11.5000  24.7500 Du        
   3776 ****       221.0000  11.7500  24.5000 Du        
   3777 ****       221.0000  11.7500  24.7500 Du        
   3778 ****       221.0000  14.2500  10.7500 Du        
   3779 ****       221.0000  14.2500  11.0000 Du        
   3780 ****       221.0000  14.5000  10.2500 Du        
   3781 ****       221.0000  14.5000  10.5000 Du        
   3782 ****       221.0000  14.5000  10.7500 Du        
   3783 ****       221.0000  14.5000  11.0000 Du        
   3784 ****       221.0000  14.5000  11.2500 Du        
   3785 ****       221.0000  14.7500  10.2500 Du        
   3786 ****       221.0000  14.7500  10.5000 Du        
   3787 ****       221.0000  14.7500  10.7500 Du        
   3788 ****       221.0000  14.7500  11.0000 Du        
   3789 ****       221.0000  14.7500  11.2500 Du        
   3790 ****       221.0000  15.0000  10.2500 Du        
   3791 ****       221.0000  15.0000  10.5000 Du        
   3792 ****       221.0000  15.0000  10.7500 Du        
   3793 ****       221.0000  15.0000  11.0000 Du        
   3794 ****       221.0000  15.0000  11.2500 Du        
   3795 ****       221.0000  15.2500  10.2500 Du        
   3796 ****       221.0000  15.2500  10.5000 Du        
   3797 ****       221.0000  15.2500  10.7500 Du        
   3798 ****       221.0000  15.2500  11.0000 Du        
   3799 ****       221.0000  15.2500  11.2500 Du        
   3800 ****       221.0000  15.5000  10.7500 Du        
   3801 ****       221.0000  15.5000  11.0000 Du        
   3802 ****       221.0000  15.5000  11.2500 Du        
   3803 ****       221.0000  20.7500  25.7500 Du        
   3804 ****       221.0000  21.0000  25.7500 Du        
   3805 ****       221.0000  21.2500  25.5000 Du        
   3806 ****       221.0000  21.2500  25.7500 Du        
   3807 ****       221.0000  21.5000  25.2500 Du        
   3808 ****       221.0000  21.5000  25.5000 Du        
   3809 ****       221.0000  21.5000  25.7500 Du        
   3810 ****       221.0000  21.7500  25.2500 Du        
   3811 ****       221.0000  21.7500  25.5000 Du        
   3812 ****       221.0000  21.7500  25.7500 Du        
   3813 ****       221.0000  22.0000  25.0000 Du        
   3814 ****       221.0000  22.0000  25.2500 Du        
   3815 ****       221.0000  22.0000  25.5000 Du        
   3816 ****       221.0000  22.0000  25.7500 Du        
   3817 ****       221.0000  22.2500  24.7500 Du        
   3818 ****       221.0000  22.2500  25.0000 Du        
   3819 ****       221.0000  22.2500  25.2500 Du        
   3820 ****       221.0000  22.2500  25.5000 Du        
   3821 ****       221.0000  22.2500  25.7500 Du        
   3822 ****       221.0000  22.5000  24.5000 Du        
   3823 ****       221.0000  22.5000  24.7500 Du        
   3824 ****       221.0000  22.5000  25.0000 Du        
   3825 ****       221.0000  22.5000  25.2500 Du        
   3826 ****       221.0000  22.5000  25.5000 Du        
   3827 ****       221.0000  22.5000  25.7500 Du        
   3828 ****       221.0000  22.7500  24.0000 Du        
   3829 ****       221.0000  22.7500  24.2500 Du        
   3830 ****       221.0000  22.7500  24.5000 Du        
   3831 ****       221.0000  22.7500  24.7500 Du        
   3832 ****       221.0000  22.7500  25.0000 Du        
   3833 ****       221.0000  22.7500  25.2500 Du        
   3834 ****       221.0000  22.7500  25.5000 Du        
   3835 ****       221.0000  22.7500  25.7500 Du        
   3836 ****       221.0000  23.0000  24.0000 Du        
   3837 ****       221.0000  23.0000  24.2500 Du        
   3838 ****       221.0000  23.0000  24.5000 Du        
   3839 ****       221.0000  23.0000  24.7500 Du        
   3840 ****       221.0000  23.0000  25.0000 Du        
   3841 ****       221.0000  23.0000  25.2500 Du        
   3842 ****       221.0000  23.0000  25.5000 Du        
   3843 ****       221.0000  23.0000  25.7500 Du        
   3844 ****       221.0000  23.2500  24.0000 Du        
   3845 ****       221.0000  23.2500  24.2500 Du        
   3846 ****       221.0000  23.2500  24.5000 Du        
   3847 ****       221.0000  23.2500  24.7500 Du        
   3848 ****       221.0000  23.2500  25.0000 Du        
   3849 ****       221.0000  23.2500  25.2500 Du        
   3850 ****       221.0000  23.2500  25.5000 Du        
   3851 ****       221.0000  23.2500  25.7500 Du        
   3852 ****       221.0000  23.5000  24.5000 Du        
   3853 ****       221.0000  23.5000  24.7500 Du        
   3854 ****       221.0000  23.5000  25.0000 Du        
   3855 ****       221.0000  23.5000  25.2500 Du        
   3856 ****       221.0000  23.5000  25.5000 Du        
   3857 ****       221.0000  23.5000  25.7500 Du        
   3858 ****       221.0000  23.7500  24.7500 Du        
   3859 ****       221.0000  23.7500  25.0000 Du        
   3860 ****       221.0000  23.7500  25.2500 Du        
   3861 ****       221.0000  23.7500  25.5000 Du        
   3862 ****       221.0000  23.7500  25.7500 Du        
   3863 ****       221.0000  24.0000  25.0000 Du        
   3864 ****       221.0000  24.0000  25.2500 Du        
   3865 ****       221.0000  24.0000  25.5000 Du        
   3866 ****       221.0000  24.0000  25.7500 Du        
   3867 ****       221.0000  24.2500  25.2500 Du        
   3868 ****       221.0000  24.2500  25.7500 Du        
   3869 ****       221.2500   7.5000   9.5000 Du        
   3870 ****       221.2500   7.5000   9.7500 Du        
   3871 ****       221.2500   7.7500   9.0000 Du        
   3872 ****       221.2500   7.7500   9.2500 Du        
   3873 ****       221.2500   7.7500   9.5000 Du        
   3874 ****       221.2500   7.7500   9.7500 Du        
   3875 ****       221.2500   7.7500  10.0000 Du        
   3876 ****       221.2500   8.0000   9.0000 Du        
   3877 ****       221.2500   8.0000   9.2500 Du        
   3878 ****       221.2500   8.0000   9.5000 Du        
   3879 ****       221.2500   8.0000   9.7500 Du        
   3880 ****       221.2500   8.0000  10.0000 Du        
   3881 ****       221.2500   8.2500   9.0000 Du        
   3882 ****       221.2500   8.2500   9.2500 Du        
   3883 ****       221.2500   8.2500   9.5000 Du        
   3884 ****       221.2500   8.2500   9.7500 Du        
   3885 ****       221.2500   8.2500  10.0000 Du        
   3886 ****       221.2500   8.2500  10.2500 Du        
   3887 ****       221.2500   8.5000   9.0000 Du        
   3888 ****       221.2500   8.5000   9.2500 Du        
   3889 ****       221.2500   8.5000   9.5000 Du        
   3890 ****       221.2500   8.5000   9.7500 Du        
   3891 ****       221.2500   8.5000  10.0000 Du        
   3892 ****       221.2500   8.5000  10.2500 Du        
   3893 ****       221.2500   8.7500   9.0000 Du        
   3894 ****       221.2500   8.7500   9.2500 Du        
   3895 ****       221.2500   8.7500   9.5000 Du        
   3896 ****       221.2500   8.7500   9.7500 Du        
   3897 ****       221.2500   8.7500  10.0000 Du        
   3898 ****       221.2500   8.7500  10.2500 Du        
   3899 ****       221.2500   9.0000   9.2500 Du        
   3900 ****       221.2500   9.0000   9.5000 Du        
   3901 ****       221.2500   9.0000   9.7500 Du        
   3902 ****       221.2500   9.0000  10.0000 Du        
   3903 ****       221.2500   9.0000  10.2500 Du        
   3904 ****       221.2500   9.2500   9.5000 Du        
   3905 ****       221.2500   9.2500   9.7500 Du        
   3906 ****       221.2500   9.2500  10.0000 Du        
   3907 ****       221.2500   9.2500  10.2500 Du        
   3908 ****       221.2500  10.7500  24.2500 Du        
   3909 ****       221.2500  11.0000  24.2500 Du        
   3910 ****       221.2500  11.2500  24.2500 Du        
   3911 ****       221.2500  11.2500  24.5000 Du        
   3912 ****       221.2500  11.2500  24.7500 Du        
   3913 ****       221.2500  11.5000  24.5000 Du        
   3914 ****       221.2500  11.5000  24.7500 Du        
   3915 ****       221.2500  11.7500  24.7500 Du        
   3916 ****       221.2500  14.5000  10.5000 Du        
   3917 ****       221.2500  14.5000  10.7500 Du        
   3918 ****       221.2500  14.5000  11.0000 Du        
   3919 ****       221.2500  14.5000  11.2500 Du        
   3920 ****       221.2500  14.7500  10.5000 Du        
   3921 ****       221.2500  14.7500  10.7500 Du        
   3922 ****       221.2500  14.7500  11.0000 Du        
   3923 ****       221.2500  14.7500  11.2500 Du        
   3924 ****       221.2500  15.0000  10.5000 Du        
   3925 ****       221.2500  15.0000  10.7500 Du        
   3926 ****       221.2500  15.0000  11.0000 Du        
   3927 ****       221.2500  15.0000  11.2500 Du        
   3928 ****       221.2500  15.2500  10.7500 Du        
   3929 ****       221.2500  15.2500  11.0000 Du        
   3930 ****       221.2500  15.2500  11.2500 Du        
   3931 ****       221.2500  20.2500  25.7500 Du        
   3932 ****       221.2500  20.7500  25.7500 Du        
   3933 ****       221.2500  21.0000  25.7500 Du        
   3934 ****       221.2500  21.2500  25.5000 Du        
   3935 ****       221.2500  21.2500  25.7500 Du        
   3936 ****       221.2500  21.5000  25.5000 Du        
   3937 ****       221.2500  21.5000  25.7500 Du        
   3938 ****       221.2500  21.7500  25.2500 Du        
   3939 ****       221.2500  21.7500  25.5000 Du        
   3940 ****       221.2500  21.7500  25.7500 Du        
   3941 ****       221.2500  22.0000  25.0000 Du        
   3942 ****       221.2500  22.0000  25.2500 Du        
   3943 ****       221.2500  22.0000  25.5000 Du        
   3944 ****       221.2500  22.0000  25.7500 Du        
   3945 ****       221.2500  22.2500  24.7500 Du        
   3946 ****       221.2500  22.2500  25.0000 Du        
   3947 ****       221.2500  22.2500  25.2500 Du        
   3948 ****       221.2500  22.2500  25.5000 Du        
   3949 ****       221.2500  22.2500  25.7500 Du        
   3950 ****       221.2500  22.5000  24.2500 Du        
   3951 ****       221.2500  22.5000  24.5000 Du        
   3952 ****       221.2500  22.5000  24.7500 Du        
   3953 ****       221.2500  22.5000  25.0000 Du        
   3954 ****       221.2500  22.5000  25.2500 Du        
   3955 ****       221.2500  22.5000  25.5000 Du        
   3956 ****       221.2500  22.5000  25.7500 Du        
   3957 ****       221.2500  22.7500  24.0000 Du        
   3958 ****       221.2500  22.7500  24.2500 Du        
   3959 ****       221.2500  22.7500  24.5000 Du        
   3960 ****       221.2500  22.7500  24.7500 Du        
   3961 ****       221.2500  22.7500  25.0000 Du        
   3962 ****       221.2500  22.7500  25.2500 Du        
   3963 ****       221.2500  22.7500  25.5000 Du        
   3964 ****       221.2500  22.7500  25.7500 Du        
   3965 ****       221.2500  23.0000  23.5000 Du        
   3966 ****       221.2500  23.0000  23.7500 Du        
   3967 ****       221.2500  23.0000  24.0000 Du        
   3968 ****       221.2500  23.0000  24.2500 Du        
   3969 ****       221.2500  23.0000  24.5000 Du        
   3970 ****       221.2500  23.0000  24.7500 Du        
   3971 ****       221.2500  23.0000  25.0000 Du        
   3972 ****       221.2500  23.0000  25.2500 Du        
   3973 ****       221.2500  23.0000  25.5000 Du        
   3974 ****       221.2500  23.0000  25.7500 Du        
   3975 ****       221.2500  23.2500  23.5000 Du        
   3976 ****       221.2500  23.2500  23.7500 Du        
   3977 ****       221.2500  23.2500  24.0000 Du        
   3978 ****       221.2500  23.2500  24.2500 Du        
   3979 ****       221.2500  23.2500  24.5000 Du        
   3980 ****       221.2500  23.2500  24.7500 Du        
   3981 ****       221.2500  23.2500  25.0000 Du        
   3982 ****       221.2500  23.2500  25.2500 Du        
   3983 ****       221.2500  23.2500  25.5000 Du        
   3984 ****       221.2500  23.2500  25.7500 Du        
   3985 ****       221.2500  23.5000  24.0000 Du        
   3986 ****       221.2500  23.5000  24.2500 Du        
   3987 ****       221.2500  23.5000  24.5000 Du        
   3988 ****       221.2500  23.5000  24.7500 Du        
   3989 ****       221.2500  23.5000  25.0000 Du        
   3990 ****       221.2500  23.5000  25.2500 Du        
   3991 ****       221.2500  23.5000  25.5000 Du        
   3992 ****       221.2500  23.5000  25.7500 Du        
   3993 ****       221.2500  23.7500  24.2500 Du        
   3994 ****       221.2500  23.7500  24.5000 Du        
   3995 ****       221.2500  23.7500  24.7500 Du        
   3996 ****       221.2500  23.7500  25.0000 Du        
   3997 ****       221.2500  23.7500  25.2500 Du        
   3998 ****       221.2500  23.7500  25.5000 Du        
   3999 ****       221.2500  23.7500  25.7500 Du        
   4000 ****       221.2500  24.0000  24.7500 Du        
   4001 ****       221.2500  24.0000  25.0000 Du        
   4002 ****       221.2500  24.0000  25.2500 Du        
   4003 ****       221.2500  24.0000  25.5000 Du        
   4004 ****       221.2500  24.0000  25.7500 Du        
   4005 ****       221.2500  24.2500  25.0000 Du        
   4006 ****       221.2500  24.2500  25.2500 Du        
   4007 ****       221.2500  24.2500  25.5000 Du        
   4008 ****       221.2500  24.2500  25.7500 Du        
   4009 ****       221.2500  24.5000  25.2500 Du        
   4010 ****       221.2500  24.5000  25.5000 Du        
   4011 ****       221.2500  24.5000  25.7500 Du        
   4012 ****       221.2500  24.7500  25.5000 Du        
   4013 ****       221.2500  24.7500  25.7500 Du        
   4014 ****       221.2500  25.0000  25.5000 Du        
   4015 ****       221.2500  25.0000  25.7500 Du        
   4016 ****       221.2500  25.2500  25.7500 Du        
   4017 ****       221.5000   7.5000   9.5000 Du        
   4018 ****       221.5000   7.5000   9.7500 Du        
   4019 ****       221.5000   7.7500   9.0000 Du        
   4020 ****       221.5000   7.7500   9.2500 Du        
   4021 ****       221.5000   7.7500   9.5000 Du        
   4022 ****       221.5000   7.7500   9.7500 Du        
   4023 ****       221.5000   7.7500  10.0000 Du        
   4024 ****       221.5000   8.0000   9.2500 Du        
   4025 ****       221.5000   8.0000   9.5000 Du        
   4026 ****       221.5000   8.0000   9.7500 Du        
   4027 ****       221.5000   8.0000  10.0000 Du        
   4028 ****       221.5000   8.2500   9.2500 Du        
   4029 ****       221.5000   8.2500   9.5000 Du        
   4030 ****       221.5000   8.2500   9.7500 Du        
   4031 ****       221.5000   8.2500  10.0000 Du        
   4032 ****       221.5000   8.2500  10.2500 Du        
   4033 ****       221.5000   8.5000   9.2500 Du        
   4034 ****       221.5000   8.5000   9.5000 Du        
   4035 ****       221.5000   8.5000   9.7500 Du        
   4036 ****       221.5000   8.5000  10.0000 Du        
   4037 ****       221.5000   8.5000  10.2500 Du        
   4038 ****       221.5000   8.7500   9.5000 Du        
   4039 ****       221.5000   8.7500   9.7500 Du        
   4040 ****       221.5000   8.7500  10.0000 Du        
   4041 ****       221.5000   8.7500  10.2500 Du        
   4042 ****       221.5000   9.0000   9.7500 Du        
   4043 ****       221.5000   9.0000  10.0000 Du        
   4044 ****       221.5000   9.0000  10.2500 Du        
   4045 ****       221.5000  10.7500  24.2500 Du        
   4046 ****       221.5000  11.2500  24.5000 Du        
   4047 ****       221.5000  11.2500  24.7500 Du        
   4048 ****       221.5000  11.5000  24.5000 Du        
   4049 ****       221.5000  11.5000  24.7500 Du        
   4050 ****       221.5000  14.7500  11.0000 Du        
   4051 ****       221.5000  14.7500  11.2500 Du        
   4052 ****       221.5000  20.2500  25.7500 Du        
   4053 ****       221.5000  20.5000  25.7500 Du        
   4054 ****       221.5000  20.7500  25.7500 Du        
   4055 ****       221.5000  21.0000  25.7500 Du        
   4056 ****       221.5000  21.2500  25.5000 Du        
   4057 ****       221.5000  21.2500  25.7500 Du        
   4058 ****       221.5000  21.5000  25.5000 Du        
   4059 ****       221.5000  21.5000  25.7500 Du        
   4060 ****       221.5000  21.7500  25.2500 Du        
   4061 ****       221.5000  21.7500  25.5000 Du        
   4062 ****       221.5000  21.7500  25.7500 Du        
   4063 ****       221.5000  22.0000  25.0000 Du        
   4064 ****       221.5000  22.0000  25.2500 Du        
   4065 ****       221.5000  22.0000  25.5000 Du        
   4066 ****       221.5000  22.0000  25.7500 Du        
   4067 ****       221.5000  22.2500  24.7500 Du        
   4068 ****       221.5000  22.2500  25.0000 Du        
   4069 ****       221.5000  22.2500  25.2500 Du        
   4070 ****       221.5000  22.2500  25.5000 Du        
   4071 ****       221.5000  22.2500  25.7500 Du        
   4072 ****       221.5000  22.5000  24.5000 Du        
   4073 ****       221.5000  22.5000  24.7500 Du        
   4074 ****       221.5000  22.5000  25.0000 Du        
   4075 ****       221.5000  22.5000  25.2500 Du        
   4076 ****       221.5000  22.5000  25.5000 Du        
   4077 ****       221.5000  22.5000  25.7500 Du        
   4078 ****       221.5000  22.7500  23.7500 Du        
   4079 ****       221.5000  22.7500  24.0000 Du        
   4080 ****       221.5000  22.7500  24.2500 Du        
   4081 ****       221.5000  22.7500  24.5000 Du        
   4082 ****       221.5000  22.7500  24.7500 Du        
   4083 ****       221.5000  22.7500  25.0000 Du        
   4084 ****       221.5000  22.7500  25.2500 Du        
   4085 ****       221.5000  22.7500  25.5000 Du        
   4086 ****       221.5000  22.7500  25.7500 Du        
   4087 ****       221.5000  23.0000  23.5000 Du        
   4088 ****       221.5000  23.0000  23.7500 Du        
   4089 ****       221.5000  23.0000  24.0000 Du        
   4090 ****       221.5000  23.0000  24.2500 Du        
   4091 ****       221.5000  23.0000  24.5000 Du        
   4092 ****       221.5000  23.0000  24.7500 Du        
   4093 ****       221.5000  23.0000  25.0000 Du        
   4094 ****       221.5000  23.0000  25.2500 Du        
   4095 ****       221.5000  23.0000  25.5000 Du        
   4096 ****       221.5000  23.0000  25.7500 Du        
   4097 ****       221.5000  23.2500  23.2500 Du        
   4098 ****       221.5000  23.2500  23.5000 Du        
   4099 ****       221.5000  23.2500  23.7500 Du        
   4100 ****       221.5000  23.2500  24.0000 Du        
   4101 ****       221.5000  23.2500  24.2500 Du        
   4102 ****       221.5000  23.2500  24.5000 Du        
   4103 ****       221.5000  23.2500  24.7500 Du        
   4104 ****       221.5000  23.2500  25.0000 Du        
   4105 ****       221.5000  23.2500  25.2500 Du        
   4106 ****       221.5000  23.2500  25.5000 Du        
   4107 ****       221.5000  23.2500  25.7500 Du        
   4108 ****       221.5000  23.5000  23.2500 Du        
   4109 ****       221.5000  23.5000  23.5000 Du        
   4110 ****       221.5000  23.5000  23.7500 Du        
   4111 ****       221.5000  23.5000  24.0000 Du        
   4112 ****       221.5000  23.5000  24.2500 Du        
   4113 ****       221.5000  23.5000  24.5000 Du        
   4114 ****       221.5000  23.5000  24.7500 Du        
   4115 ****       221.5000  23.5000  25.0000 Du        
   4116 ****       221.5000  23.5000  25.2500 Du        
   4117 ****       221.5000  23.5000  25.5000 Du        
   4118 ****       221.5000  23.5000  25.7500 Du        
   4119 ****       221.5000  23.7500  23.7500 Du        
   4120 ****       221.5000  23.7500  24.0000 Du        
   4121 ****       221.5000  23.7500  24.2500 Du        
   4122 ****       221.5000  23.7500  24.5000 Du        
   4123 ****       221.5000  23.7500  24.7500 Du        
   4124 ****       221.5000  23.7500  25.0000 Du        
   4125 ****       221.5000  23.7500  25.2500 Du        
   4126 ****       221.5000  23.7500  25.5000 Du        
   4127 ****       221.5000  23.7500  25.7500 Du        
   4128 ****       221.5000  24.0000  24.2500 Du        
   4129 ****       221.5000  24.0000  24.5000 Du        
   4130 ****       221.5000  24.0000  24.7500 Du        
   4131 ****       221.5000  24.0000  25.0000 Du        
   4132 ****       221.5000  24.0000  25.2500 Du        
   4133 ****       221.5000  24.0000  25.5000 Du        
   4134 ****       221.5000  24.0000  25.7500 Du        
   4135 ****       221.5000  24.2500  24.7500 Du        
   4136 ****       221.5000  24.2500  25.0000 Du        
   4137 ****       221.5000  24.2500  25.2500 Du        
   4138 ****       221.5000  24.2500  25.5000 Du        
   4139 ****       221.5000  24.2500  25.7500 Du        
   4140 ****       221.5000  24.5000  25.0000 Du        
   4141 ****       221.5000  24.5000  25.2500 Du        
   4142 ****       221.5000  24.5000  25.5000 Du        
   4143 ****       221.5000  24.5000  25.7500 Du        
   4144 ****       221.5000  24.7500  25.2500 Du        
   4145 ****       221.5000  24.7500  25.5000 Du        
   4146 ****       221.5000  24.7500  25.7500 Du        
   4147 ****       221.5000  25.0000  25.2500 Du        
   4148 ****       221.5000  25.0000  25.5000 Du        
   4149 ****       221.5000  25.0000  25.7500 Du        
   4150 ****       221.5000  25.2500  25.5000 Du        
   4151 ****       221.5000  25.2500  25.7500 Du        
   4152 ****       221.5000  25.5000  25.7500 Du        
   4153 ****       221.5000  25.7500  25.7500 Du        
   4154 ****       221.5000  26.0000  25.7500 Du        
   4155 ****       221.7500   7.2500   9.0000 Du        
   4156 ****       221.7500   7.2500   9.2500 Du        
   4157 ****       221.7500   7.5000   9.0000 Du        
   4158 ****       221.7500   7.5000   9.2500 Du        
   4159 ****       221.7500   7.5000   9.5000 Du        
   4160 ****       221.7500   7.5000   9.7500 Du        
   4161 ****       221.7500   7.7500   9.2500 Du        
   4162 ****       221.7500   7.7500   9.5000 Du        
   4163 ****       221.7500   7.7500   9.7500 Du        
   4164 ****       221.7500   8.0000   9.5000 Du        
   4165 ****       221.7500   8.0000   9.7500 Du        
   4166 ****       221.7500   8.0000  10.0000 Du        
   4167 ****       221.7500   8.2500   9.5000 Du        
   4168 ****       221.7500   8.2500   9.7500 Du        
   4169 ****       221.7500   8.2500  10.0000 Du        
   4170 ****       221.7500   8.2500  10.2500 Du        
   4171 ****       221.7500   8.5000   9.7500 Du        
   4172 ****       221.7500   8.5000  10.0000 Du        
   4173 ****       221.7500   8.5000  10.2500 Du        
   4174 ****       221.7500   8.7500  10.0000 Du        
   4175 ****       221.7500   8.7500  10.2500 Du        
   4176 ****       221.7500  20.2500  25.7500 Du        
   4177 ****       221.7500  20.5000  25.7500 Du        
   4178 ****       221.7500  20.7500  25.7500 Du        
   4179 ****       221.7500  21.0000  25.7500 Du        
   4180 ****       221.7500  21.2500  25.5000 Du        
   4181 ****       221.7500  21.2500  25.7500 Du        
   4182 ****       221.7500  21.5000  25.5000 Du        
   4183 ****       221.7500  21.5000  25.7500 Du        
   4184 ****       221.7500  21.7500  25.2500 Du        
   4185 ****       221.7500  21.7500  25.5000 Du        
   4186 ****       221.7500  21.7500  25.7500 Du        
   4187 ****       221.7500  22.0000  25.0000 Du        
   4188 ****       221.7500  22.0000  25.2500 Du        
   4189 ****       221.7500  22.0000  25.5000 Du        
   4190 ****       221.7500  22.0000  25.7500 Du        
   4191 ****       221.7500  22.2500  24.7500 Du        
   4192 ****       221.7500  22.2500  25.0000 Du        
   4193 ****       221.7500  22.2500  25.2500 Du        
   4194 ****       221.7500  22.2500  25.5000 Du        
   4195 ****       221.7500  22.2500  25.7500 Du        
   4196 ****       221.7500  22.5000  24.2500 Du        
   4197 ****       221.7500  22.5000  24.5000 Du        
   4198 ****       221.7500  22.5000  24.7500 Du        
   4199 ****       221.7500  22.5000  25.0000 Du        
   4200 ****       221.7500  22.5000  25.2500 Du        
   4201 ****       221.7500  22.5000  25.5000 Du        
   4202 ****       221.7500  22.5000  25.7500 Du        
   4203 ****       221.7500  22.7500  23.7500 Du        
   4204 ****       221.7500  22.7500  24.0000 Du        
   4205 ****       221.7500  22.7500  24.2500 Du        
   4206 ****       221.7500  22.7500  24.5000 Du        
   4207 ****       221.7500  22.7500  24.7500 Du        
   4208 ****       221.7500  22.7500  25.0000 Du        
   4209 ****       221.7500  22.7500  25.2500 Du        
   4210 ****       221.7500  22.7500  25.5000 Du        
   4211 ****       221.7500  22.7500  25.7500 Du        
   4212 ****       221.7500  23.0000  23.2500 Du        
   4213 ****       221.7500  23.0000  23.5000 Du        
   4214 ****       221.7500  23.0000  23.7500 Du        
   4215 ****       221.7500  23.0000  24.0000 Du        
   4216 ****       221.7500  23.0000  24.2500 Du        
   4217 ****       221.7500  23.0000  24.5000 Du        
   4218 ****       221.7500  23.0000  24.7500 Du        
   4219 ****       221.7500  23.0000  25.0000 Du        
   4220 ****       221.7500  23.0000  25.2500 Du        
   4221 ****       221.7500  23.0000  25.5000 Du        
   4222 ****       221.7500  23.0000  25.7500 Du        
   4223 ****       221.7500  23.2500  23.0000 Du        
   4224 ****       221.7500  23.2500  23.2500 Du        
   4225 ****       221.7500  23.2500  23.5000 Du        
   4226 ****       221.7500  23.2500  23.7500 Du        
   4227 ****       221.7500  23.2500  24.0000 Du        
   4228 ****       221.7500  23.2500  24.2500 Du        
   4229 ****       221.7500  23.2500  24.5000 Du        
   4230 ****       221.7500  23.2500  24.7500 Du        
   4231 ****       221.7500  23.2500  25.0000 Du        
   4232 ****       221.7500  23.2500  25.2500 Du        
   4233 ****       221.7500  23.2500  25.5000 Du        
   4234 ****       221.7500  23.2500  25.7500 Du        
   4235 ****       221.7500  23.5000  23.0000 Du        
   4236 ****       221.7500  23.5000  23.2500 Du        
   4237 ****       221.7500  23.5000  23.5000 Du        
   4238 ****       221.7500  23.5000  23.7500 Du        
   4239 ****       221.7500  23.5000  24.0000 Du        
   4240 ****       221.7500  23.5000  24.2500 Du        
   4241 ****       221.7500  23.5000  24.5000 Du        
   4242 ****       221.7500  23.5000  24.7500 Du        
   4243 ****       221.7500  23.5000  25.0000 Du        
   4244 ****       221.7500  23.5000  25.2500 Du        
   4245 ****       221.7500  23.5000  25.5000 Du        
   4246 ****       221.7500  23.5000  25.7500 Du        
   4247 ****       221.7500  23.7500  23.2500 Du        
   4248 ****       221.7500  23.7500  23.5000 Du        
   4249 ****       221.7500  23.7500  23.7500 Du        
   4250 ****       221.7500  23.7500  24.0000 Du        
   4251 ****       221.7500  23.7500  24.2500 Du        
   4252 ****       221.7500  23.7500  24.5000 Du        
   4253 ****       221.7500  23.7500  24.7500 Du        
   4254 ****       221.7500  23.7500  25.0000 Du        
   4255 ****       221.7500  23.7500  25.2500 Du        
   4256 ****       221.7500  23.7500  25.5000 Du        
   4257 ****       221.7500  23.7500  25.7500 Du        
   4258 ****       221.7500  24.0000  23.7500 Du        
   4259 ****       221.7500  24.0000  24.0000 Du        
   4260 ****       221.7500  24.0000  24.2500 Du        
   4261 ****       221.7500  24.0000  24.5000 Du        
   4262 ****       221.7500  24.0000  24.7500 Du        
   4263 ****       221.7500  24.0000  25.0000 Du        
   4264 ****       221.7500  24.0000  25.2500 Du        
   4265 ****       221.7500  24.0000  25.5000 Du        
   4266 ****       221.7500  24.0000  25.7500 Du        
   4267 ****       221.7500  24.2500  24.5000 Du        
   4268 ****       221.7500  24.2500  24.7500 Du        
   4269 ****       221.7500  24.2500  25.0000 Du        
   4270 ****       221.7500  24.2500  25.2500 Du        
   4271 ****       221.7500  24.2500  25.5000 Du        
   4272 ****       221.7500  24.2500  25.7500 Du        
   4273 ****       221.7500  24.5000  25.0000 Du        
   4274 ****       221.7500  24.5000  25.2500 Du        
   4275 ****       221.7500  24.5000  25.5000 Du        
   4276 ****       221.7500  24.5000  25.7500 Du        
   4277 ****       221.7500  24.7500  25.0000 Du        
   4278 ****       221.7500  24.7500  25.2500 Du        
   4279 ****       221.7500  24.7500  25.5000 Du        
   4280 ****       221.7500  24.7500  25.7500 Du        
   4281 ****       221.7500  25.0000  25.2500 Du        
   4282 ****       221.7500  25.0000  25.5000 Du        
   4283 ****       221.7500  25.0000  25.7500 Du        
   4284 ****       221.7500  25.2500  25.2500 Du        
   4285 ****       221.7500  25.2500  25.5000 Du        
   4286 ****       221.7500  25.2500  25.7500 Du        
   4287 ****       221.7500  25.5000  25.5000 Du        
   4288 ****       221.7500  25.5000  25.7500 Du        
   4289 ****       221.7500  25.7500  25.5000 Du        
   4290 ****       221.7500  25.7500  25.7500 Du        
   4291 ****       221.7500  26.0000  25.7500 Du        
   4292 ****       221.7500  26.2500  25.7500 Du        
   4293 ****       222.0000   7.2500   9.2500 Du        
   4294 ****       222.0000   7.5000   9.2500 Du        
   4295 ****       222.0000   7.5000   9.5000 Du        
   4296 ****       222.0000   7.5000   9.7500 Du        
   4297 ****       222.0000   7.7500   9.7500 Du        
   4298 ****       222.0000   7.7500  10.0000 Du        
   4299 ****       222.0000   8.0000   9.7500 Du        
   4300 ****       222.0000   8.0000  10.0000 Du        
   4301 ****       222.0000   8.2500  10.0000 Du        
   4302 ****       222.0000  20.2500  25.7500 Du        
   4303 ****       222.0000  20.5000  25.7500 Du        
   4304 ****       222.0000  20.7500  25.7500 Du        
   4305 ****       222.0000  21.0000  25.7500 Du        
   4306 ****       222.0000  21.2500  25.7500 Du        
   4307 ****       222.0000  21.5000  25.5000 Du        
   4308 ****       222.0000  21.5000  25.7500 Du        
   4309 ****       222.0000  21.7500  25.2500 Du        
   4310 ****       222.0000  21.7500  25.5000 Du        
   4311 ****       222.0000  21.7500  25.7500 Du        
   4312 ****       222.0000  22.0000  25.0000 Du        
   4313 ****       222.0000  22.0000  25.2500 Du        
   4314 ****       222.0000  22.0000  25.5000 Du        
   4315 ****       222.0000  22.0000  25.7500 Du        
   4316 ****       222.0000  22.2500  24.7500 Du        
   4317 ****       222.0000  22.2500  25.0000 Du        
   4318 ****       222.0000  22.2500  25.2500 Du        
   4319 ****       222.0000  22.2500  25.5000 Du        
   4320 ****       222.0000  22.2500  25.7500 Du        
   4321 ****       222.0000  22.5000  24.2500 Du        
   4322 ****       222.0000  22.5000  24.5000 Du        
   4323 ****       222.0000  22.5000  24.7500 Du        
   4324 ****       222.0000  22.5000  25.0000 Du        
   4325 ****       222.0000  22.5000  25.2500 Du        
   4326 ****       222.0000  22.5000  25.5000 Du        
   4327 ****       222.0000  22.5000  25.7500 Du        
   4328 ****       222.0000  22.7500  23.7500 Du        
   4329 ****       222.0000  22.7500  24.0000 Du        
   4330 ****       222.0000  22.7500  24.2500 Du        
   4331 ****       222.0000  22.7500  24.5000 Du        
   4332 ****       222.0000  22.7500  24.7500 Du        
   4333 ****       222.0000  22.7500  25.0000 Du        
   4334 ****       222.0000  22.7500  25.2500 Du        
   4335 ****       222.0000  22.7500  25.5000 Du        
   4336 ****       222.0000  22.7500  25.7500 Du        
   4337 ****       222.0000  23.0000  23.2500 Du        
   4338 ****       222.0000  23.0000  23.5000 Du        
   4339 ****       222.0000  23.0000  23.7500 Du        
   4340 ****       222.0000  23.0000  24.0000 Du        
   4341 ****       222.0000  23.0000  24.2500 Du        
   4342 ****       222.0000  23.0000  24.5000 Du        
   4343 ****       222.0000  23.0000  24.7500 Du        
   4344 ****       222.0000  23.0000  25.0000 Du        
   4345 ****       222.0000  23.0000  25.2500 Du        
   4346 ****       222.0000  23.0000  25.5000 Du        
   4347 ****       222.0000  23.0000  25.7500 Du        
   4348 ****       222.0000  23.2500  23.0000 Du        
   4349 ****       222.0000  23.2500  23.2500 Du        
   4350 ****       222.0000  23.2500  23.5000 Du        
   4351 ****       222.0000  23.2500  23.7500 Du        
   4352 ****       222.0000  23.2500  24.0000 Du        
   4353 ****       222.0000  23.2500  24.2500 Du        
   4354 ****       222.0000  23.2500  24.5000 Du        
   4355 ****       222.0000  23.2500  24.7500 Du        
   4356 ****       222.0000  23.2500  25.0000 Du        
   4357 ****       222.0000  23.2500  25.2500 Du        
   4358 ****       222.0000  23.2500  25.5000 Du        
   4359 ****       222.0000  23.2500  25.7500 Du        
   4360 ****       222.0000  23.5000  23.0000 Du        
   4361 ****       222.0000  23.5000  23.2500 Du        
   4362 ****       222.0000  23.5000  23.5000 Du        
   4363 ****       222.0000  23.5000  23.7500 Du        
   4364 ****       222.0000  23.5000  24.0000 Du        
   4365 ****       222.0000  23.5000  24.2500 Du        
   4366 ****       222.0000  23.5000  24.5000 Du        
   4367 ****       222.0000  23.5000  24.7500 Du        
   4368 ****       222.0000  23.5000  25.0000 Du        
   4369 ****       222.0000  23.5000  25.2500 Du        
   4370 ****       222.0000  23.5000  25.5000 Du        
   4371 ****       222.0000  23.5000  25.7500 Du        
   4372 ****       222.0000  23.7500  23.2500 Du        
   4373 ****       222.0000  23.7500  23.5000 Du        
   4374 ****       222.0000  23.7500  23.7500 Du        
   4375 ****       222.0000  23.7500  24.0000 Du        
   4376 ****       222.0000  23.7500  24.2500 Du        
   4377 ****       222.0000  23.7500  24.5000 Du        
   4378 ****       222.0000  23.7500  24.7500 Du        
   4379 ****       222.0000  23.7500  25.0000 Du        
   4380 ****       222.0000  23.7500  25.2500 Du        
   4381 ****       222.0000  23.7500  25.5000 Du        
   4382 ****       222.0000  23.7500  25.7500 Du        
   4383 ****       222.0000  24.0000  23.5000 Du        
   4384 ****       222.0000  24.0000  23.7500 Du        
   4385 ****       222.0000  24.0000  24.0000 Du        
   4386 ****       222.0000  24.0000  24.2500 Du        
   4387 ****       222.0000  24.0000  24.5000 Du        
   4388 ****       222.0000  24.0000  24.7500 Du        
   4389 ****       222.0000  24.0000  25.0000 Du        
   4390 ****       222.0000  24.0000  25.2500 Du        
   4391 ****       222.0000  24.0000  25.5000 Du        
   4392 ****       222.0000  24.0000  25.7500 Du        
   4393 ****       222.0000  24.2500  24.0000 Du        
   4394 ****       222.0000  24.2500  24.2500 Du        
   4395 ****       222.0000  24.2500  24.5000 Du        
   4396 ****       222.0000  24.2500  24.7500 Du        
   4397 ****       222.0000  24.2500  25.0000 Du        
   4398 ****       222.0000  24.2500  25.2500 Du        
   4399 ****       222.0000  24.2500  25.5000 Du        
   4400 ****       222.0000  24.2500  25.7500 Du        
   4401 ****       222.0000  24.5000  24.7500 Du        
   4402 ****       222.0000  24.5000  25.0000 Du        
   4403 ****       222.0000  24.5000  25.2500 Du        
   4404 ****       222.0000  24.5000  25.5000 Du        
   4405 ****       222.0000  24.5000  25.7500 Du        
   4406 ****       222.0000  24.7500  24.7500 Du        
   4407 ****       222.0000  24.7500  25.0000 Du        
   4408 ****       222.0000  24.7500  25.2500 Du        
   4409 ****       222.0000  24.7500  25.5000 Du        
   4410 ****       222.0000  24.7500  25.7500 Du        
   4411 ****       222.0000  25.0000  25.0000 Du        
   4412 ****       222.0000  25.0000  25.2500 Du        
   4413 ****       222.0000  25.0000  25.5000 Du        
   4414 ****       222.0000  25.0000  25.7500 Du        
   4415 ****       222.0000  25.2500  25.2500 Du        
   4416 ****       222.0000  25.2500  25.5000 Du        
   4417 ****       222.0000  25.2500  25.7500 Du        
   4418 ****       222.0000  25.5000  25.2500 Du        
   4419 ****       222.0000  25.5000  25.5000 Du        
   4420 ****       222.0000  25.5000  25.7500 Du        
   4421 ****       222.0000  25.7500  25.2500 Du        
   4422 ****       222.0000  25.7500  25.5000 Du        
   4423 ****       222.0000  25.7500  25.7500 Du        
   4424 ****       222.0000  26.0000  25.5000 Du        
   4425 ****       222.0000  26.0000  25.7500 Du        
   4426 ****       222.0000  26.2500  25.5000 Du        
   4427 ****       222.0000  26.2500  25.7500 Du        
   4428 ****       222.0000  26.5000  25.5000 Du        
   4429 ****       222.0000  26.5000  25.7500 Du        
   4430 ****       222.2500   7.7500   9.7500 Du        
   4431 ****       222.2500   8.0000  10.0000 Du        
   4432 ****       222.2500  20.5000  16.0000 Du        
   4433 ****       222.2500  20.5000  16.2500 Du        
   4434 ****       222.2500  20.7500  16.0000 Du        
   4435 ****       222.2500  20.7500  16.2500 Du        
   4436 ****       222.2500  20.7500  25.7500 Du        
   4437 ****       222.2500  21.0000  16.0000 Du        
   4438 ****       222.2500  21.0000  16.2500 Du        
   4439 ****       222.2500  21.0000  25.7500 Du        
   4440 ****       222.2500  21.2500  16.0000 Du        
   4441 ****       222.2500  21.2500  16.2500 Du        
   4442 ****       222.2500  21.2500  25.7500 Du        
   4443 ****       222.2500  21.5000  25.5000 Du        
   4444 ****       222.2500  21.5000  25.7500 Du        
   4445 ****       222.2500  21.7500  25.2500 Du        
   4446 ****       222.2500  21.7500  25.5000 Du        
   4447 ****       222.2500  21.7500  25.7500 Du        
   4448 ****       222.2500  22.0000  25.0000 Du        
   4449 ****       222.2500  22.0000  25.2500 Du        
   4450 ****       222.2500  22.0000  25.5000 Du        
   4451 ****       222.2500  22.0000  25.7500 Du        
   4452 ****       222.2500  22.2500  24.7500 Du        
   4453 ****       222.2500  22.2500  25.0000 Du        
   4454 ****       222.2500  22.2500  25.2500 Du        
   4455 ****       222.2500  22.2500  25.5000 Du        
   4456 ****       222.2500  22.2500  25.7500 Du        
   4457 ****       222.2500  22.5000  24.5000 Du        
   4458 ****       222.2500  22.5000  24.7500 Du        
   4459 ****       222.2500  22.5000  25.0000 Du        
   4460 ****       222.2500  22.5000  25.2500 Du        
   4461 ****       222.2500  22.5000  25.5000 Du        
   4462 ****       222.2500  22.5000  25.7500 Du        
   4463 ****       222.2500  22.7500  23.7500 Du        
   4464 ****       222.2500  22.7500  24.0000 Du        
   4465 ****       222.2500  22.7500  24.2500 Du        
   4466 ****       222.2500  22.7500  24.5000 Du        
   4467 ****       222.2500  22.7500  24.7500 Du        
   4468 ****       222.2500  22.7500  25.0000 Du        
   4469 ****       222.2500  22.7500  25.2500 Du        
   4470 ****       222.2500  22.7500  25.5000 Du        
   4471 ****       222.2500  22.7500  25.7500 Du        
   4472 ****       222.2500  23.0000  23.2500 Du        
   4473 ****       222.2500  23.0000  23.5000 Du        
   4474 ****       222.2500  23.0000  23.7500 Du        
   4475 ****       222.2500  23.0000  24.0000 Du        
   4476 ****       222.2500  23.0000  24.2500 Du        
   4477 ****       222.2500  23.0000  24.5000 Du        
   4478 ****       222.2500  23.0000  24.7500 Du        
   4479 ****       222.2500  23.0000  25.0000 Du        
   4480 ****       222.2500  23.0000  25.2500 Du        
   4481 ****       222.2500  23.0000  25.5000 Du        
   4482 ****       222.2500  23.0000  25.7500 Du        
   4483 ****       222.2500  23.2500  23.0000 Du        
   4484 ****       222.2500  23.2500  23.2500 Du        
   4485 ****       222.2500  23.2500  23.5000 Du        
   4486 ****       222.2500  23.2500  23.7500 Du        
   4487 ****       222.2500  23.2500  24.0000 Du        
   4488 ****       222.2500  23.2500  24.2500 Du        
   4489 ****       222.2500  23.2500  24.5000 Du        
   4490 ****       222.2500  23.2500  24.7500 Du        
   4491 ****       222.2500  23.2500  25.0000 Du        
   4492 ****       222.2500  23.2500  25.2500 Du        
   4493 ****       222.2500  23.2500  25.5000 Du        
   4494 ****       222.2500  23.2500  25.7500 Du        
   4495 ****       222.2500  23.5000  23.0000 Du        
   4496 ****       222.2500  23.5000  23.2500 Du        
   4497 ****       222.2500  23.5000  23.5000 Du        
   4498 ****       222.2500  23.5000  23.7500 Du        
   4499 ****       222.2500  23.5000  24.0000 Du        
   4500 ****       222.2500  23.5000  24.2500 Du        
   4501 ****       222.2500  23.5000  24.5000 Du        
   4502 ****       222.2500  23.5000  24.7500 Du        
   4503 ****       222.2500  23.5000  25.0000 Du        
   4504 ****       222.2500  23.5000  25.2500 Du        
   4505 ****       222.2500  23.5000  25.5000 Du        
   4506 ****       222.2500  23.5000  25.7500 Du        
   4507 ****       222.2500  23.7500  23.0000 Du        
   4508 ****       222.2500  23.7500  23.2500 Du        
   4509 ****       222.2500  23.7500  23.5000 Du        
   4510 ****       222.2500  23.7500  23.7500 Du        
   4511 ****       222.2500  23.7500  24.0000 Du        
   4512 ****       222.2500  23.7500  24.2500 Du        
   4513 ****       222.2500  23.7500  24.5000 Du        
   4514 ****       222.2500  23.7500  24.7500 Du        
   4515 ****       222.2500  23.7500  25.0000 Du        
   4516 ****       222.2500  23.7500  25.2500 Du        
   4517 ****       222.2500  23.7500  25.5000 Du        
   4518 ****       222.2500  23.7500  25.7500 Du        
   4519 ****       222.2500  24.0000  23.2500 Du        
   4520 ****       222.2500  24.0000  23.5000 Du        
   4521 ****       222.2500  24.0000  23.7500 Du        
   4522 ****       222.2500  24.0000  24.0000 Du        
   4523 ****       222.2500  24.0000  24.2500 Du        
   4524 ****       222.2500  24.0000  24.5000 Du        
   4525 ****       222.2500  24.0000  24.7500 Du        
   4526 ****       222.2500  24.0000  25.0000 Du        
   4527 ****       222.2500  24.0000  25.2500 Du        
   4528 ****       222.2500  24.0000  25.5000 Du        
   4529 ****       222.2500  24.0000  25.7500 Du        
   4530 ****       222.2500  24.2500  23.7500 Du        
   4531 ****       222.2500  24.2500  24.0000 Du        
   4532 ****       222.2500  24.2500  24.2500 Du        
   4533 ****       222.2500  24.2500  24.5000 Du        
   4534 ****       222.2500  24.2500  24.7500 Du        
   4535 ****       222.2500  24.2500  25.0000 Du        
   4536 ****       222.2500  24.2500  25.2500 Du        
   4537 ****       222.2500  24.2500  25.5000 Du        
   4538 ****       222.2500  24.2500  25.7500 Du        
   4539 ****       222.2500  24.5000  24.2500 Du        
   4540 ****       222.2500  24.5000  24.5000 Du        
   4541 ****       222.2500  24.5000  24.7500 Du        
   4542 ****       222.2500  24.5000  25.0000 Du        
   4543 ****       222.2500  24.5000  25.2500 Du        
   4544 ****       222.2500  24.5000  25.5000 Du        
   4545 ****       222.2500  24.5000  25.7500 Du        
   4546 ****       222.2500  24.7500  24.7500 Du        
   4547 ****       222.2500  24.7500  25.0000 Du        
   4548 ****       222.2500  24.7500  25.2500 Du        
   4549 ****       222.2500  24.7500  25.5000 Du        
   4550 ****       222.2500  24.7500  25.7500 Du        
   4551 ****       222.2500  25.0000  24.7500 Du        
   4552 ****       222.2500  25.0000  25.0000 Du        
   4553 ****       222.2500  25.0000  25.2500 Du        
   4554 ****       222.2500  25.0000  25.5000 Du        
   4555 ****       222.2500  25.0000  25.7500 Du        
   4556 ****       222.2500  25.2500  25.0000 Du        
   4557 ****       222.2500  25.2500  25.2500 Du        
   4558 ****       222.2500  25.2500  25.5000 Du        
   4559 ****       222.2500  25.2500  25.7500 Du        
   4560 ****       222.2500  25.5000  25.0000 Du        
   4561 ****       222.2500  25.5000  25.2500 Du        
   4562 ****       222.2500  25.5000  25.5000 Du        
   4563 ****       222.2500  25.5000  25.7500 Du        
   4564 ****       222.2500  25.7500  25.2500 Du        
   4565 ****       222.2500  25.7500  25.5000 Du        
   4566 ****       222.2500  25.7500  25.7500 Du        
   4567 ****       222.2500  26.0000  25.2500 Du        
   4568 ****       222.2500  26.0000  25.5000 Du        
   4569 ****       222.2500  26.0000  25.7500 Du        
   4570 ****       222.2500  26.2500  25.2500 Du        
   4571 ****       222.2500  26.2500  25.5000 Du        
   4572 ****       222.2500  26.2500  25.7500 Du        
   4573 ****       222.2500  26.5000  25.2500 Du        
   4574 ****       222.2500  26.5000  25.5000 Du        
   4575 ****       222.2500  26.5000  25.7500 Du        
   4576 ****       222.2500  26.7500  25.2500 Du        
   4577 ****       222.2500  26.7500  25.5000 Du        
   4578 ****       222.2500  26.7500  25.7500 Du        
   4579 ****       222.2500  27.0000  25.7500 Du        
   4580 ****       222.5000  20.5000  15.7500 Du        
   4581 ****       222.5000  20.5000  16.0000 Du        
   4582 ****       222.5000  20.7500  15.7500 Du        
   4583 ****       222.5000  20.7500  16.0000 Du        
   4584 ****       222.5000  20.7500  16.2500 Du        
   4585 ****       222.5000  20.7500  25.7500 Du        
   4586 ****       222.5000  21.0000  15.7500 Du        
   4587 ****       222.5000  21.0000  16.0000 Du        
   4588 ****       222.5000  21.0000  16.2500 Du        
   4589 ****       222.5000  21.0000  25.7500 Du        
   4590 ****       222.5000  21.2500  15.7500 Du        
   4591 ****       222.5000  21.2500  16.0000 Du        
   4592 ****       222.5000  21.2500  16.2500 Du        
   4593 ****       222.5000  21.2500  25.7500 Du        
   4594 ****       222.5000  21.5000  16.0000 Du        
   4595 ****       222.5000  21.5000  16.2500 Du        
   4596 ****       222.5000  21.5000  25.5000 Du        
   4597 ****       222.5000  21.5000  25.7500 Du        
   4598 ****       222.5000  21.7500  25.2500 Du        
   4599 ****       222.5000  21.7500  25.5000 Du        
   4600 ****       222.5000  21.7500  25.7500 Du        
   4601 ****       222.5000  22.0000  25.0000 Du        
   4602 ****       222.5000  22.0000  25.2500 Du        
   4603 ****       222.5000  22.0000  25.5000 Du        
   4604 ****       222.5000  22.0000  25.7500 Du        
   4605 ****       222.5000  22.2500  24.7500 Du        
   4606 ****       222.5000  22.2500  25.0000 Du        
   4607 ****       222.5000  22.2500  25.2500 Du        
   4608 ****       222.5000  22.2500  25.5000 Du        
   4609 ****       222.5000  22.2500  25.7500 Du        
   4610 ****       222.5000  22.5000  24.2500 Du        
   4611 ****       222.5000  22.5000  24.5000 Du        
   4612 ****       222.5000  22.5000  24.7500 Du        
   4613 ****       222.5000  22.5000  25.0000 Du        
   4614 ****       222.5000  22.5000  25.2500 Du        
   4615 ****       222.5000  22.5000  25.5000 Du        
   4616 ****       222.5000  22.5000  25.7500 Du        
   4617 ****       222.5000  22.7500  23.7500 Du        
   4618 ****       222.5000  22.7500  24.0000 Du        
   4619 ****       222.5000  22.7500  24.2500 Du        
   4620 ****       222.5000  22.7500  24.5000 Du        
   4621 ****       222.5000  22.7500  24.7500 Du        
   4622 ****       222.5000  22.7500  25.0000 Du        
   4623 ****       222.5000  22.7500  25.2500 Du        
   4624 ****       222.5000  22.7500  25.5000 Du        
   4625 ****       222.5000  22.7500  25.7500 Du        
   4626 ****       222.5000  23.0000  23.0000 Du        
   4627 ****       222.5000  23.0000  23.2500 Du        
   4628 ****       222.5000  23.0000  23.5000 Du        
   4629 ****       222.5000  23.0000  23.7500 Du        
   4630 ****       222.5000  23.0000  24.0000 Du        
   4631 ****       222.5000  23.0000  24.2500 Du        
   4632 ****       222.5000  23.0000  24.5000 Du        
   4633 ****       222.5000  23.0000  24.7500 Du        
   4634 ****       222.5000  23.0000  25.0000 Du        
   4635 ****       222.5000  23.0000  25.2500 Du        
   4636 ****       222.5000  23.0000  25.5000 Du        
   4637 ****       222.5000  23.0000  25.7500 Du        
   4638 ****       222.5000  23.2500  23.0000 Du        
   4639 ****       222.5000  23.2500  23.2500 Du        
   4640 ****       222.5000  23.2500  23.5000 Du        
   4641 ****       222.5000  23.2500  23.7500 Du        
   4642 ****       222.5000  23.2500  24.0000 Du        
   4643 ****       222.5000  23.2500  24.2500 Du        
   4644 ****       222.5000  23.2500  24.5000 Du        
   4645 ****       222.5000  23.2500  24.7500 Du        
   4646 ****       222.5000  23.2500  25.0000 Du        
   4647 ****       222.5000  23.2500  25.2500 Du        
   4648 ****       222.5000  23.2500  25.5000 Du        
   4649 ****       222.5000  23.2500  25.7500 Du        
   4650 ****       222.5000  23.5000  23.0000 Du        
   4651 ****       222.5000  23.5000  23.2500 Du        
   4652 ****       222.5000  23.5000  23.5000 Du        
   4653 ****       222.5000  23.5000  23.7500 Du        
   4654 ****       222.5000  23.5000  24.0000 Du        
   4655 ****       222.5000  23.5000  24.2500 Du        
   4656 ****       222.5000  23.5000  24.5000 Du        
   4657 ****       222.5000  23.5000  24.7500 Du        
   4658 ****       222.5000  23.5000  25.0000 Du        
   4659 ****       222.5000  23.5000  25.2500 Du        
   4660 ****       222.5000  23.5000  25.5000 Du        
   4661 ****       222.5000  23.5000  25.7500 Du        
   4662 ****       222.5000  23.7500  23.0000 Du        
   4663 ****       222.5000  23.7500  23.2500 Du        
   4664 ****       222.5000  23.7500  23.5000 Du        
   4665 ****       222.5000  23.7500  23.7500 Du        
   4666 ****       222.5000  23.7500  24.0000 Du        
   4667 ****       222.5000  23.7500  24.2500 Du        
   4668 ****       222.5000  23.7500  24.5000 Du        
   4669 ****       222.5000  23.7500  24.7500 Du        
   4670 ****       222.5000  23.7500  25.0000 Du        
   4671 ****       222.5000  23.7500  25.2500 Du        
   4672 ****       222.5000  23.7500  25.5000 Du        
   4673 ****       222.5000  23.7500  25.7500 Du        
   4674 ****       222.5000  24.0000  23.0000 Du        
   4675 ****       222.5000  24.0000  23.2500 Du        
   4676 ****       222.5000  24.0000  23.5000 Du        
   4677 ****       222.5000  24.0000  23.7500 Du        
   4678 ****       222.5000  24.0000  24.0000 Du        
   4679 ****       222.5000  24.0000  24.2500 Du        
   4680 ****       222.5000  24.0000  24.5000 Du        
   4681 ****       222.5000  24.0000  24.7500 Du        
   4682 ****       222.5000  24.0000  25.0000 Du        
   4683 ****       222.5000  24.0000  25.2500 Du        
   4684 ****       222.5000  24.0000  25.5000 Du        
   4685 ****       222.5000  24.0000  25.7500 Du        
   4686 ****       222.5000  24.2500  23.2500 Du        
   4687 ****       222.5000  24.2500  23.5000 Du        
   4688 ****       222.5000  24.2500  23.7500 Du        
   4689 ****       222.5000  24.2500  24.0000 Du        
   4690 ****       222.5000  24.2500  24.2500 Du        
   4691 ****       222.5000  24.2500  24.5000 Du        
   4692 ****       222.5000  24.2500  24.7500 Du        
   4693 ****       222.5000  24.2500  25.0000 Du        
   4694 ****       222.5000  24.2500  25.2500 Du        
   4695 ****       222.5000  24.2500  25.5000 Du        
   4696 ****       222.5000  24.2500  25.7500 Du        
   4697 ****       222.5000  24.5000  23.5000 Du        
   4698 ****       222.5000  24.5000  23.7500 Du        
   4699 ****       222.5000  24.5000  24.0000 Du        
   4700 ****       222.5000  24.5000  24.2500 Du        
   4701 ****       222.5000  24.5000  24.5000 Du        
   4702 ****       222.5000  24.5000  24.7500 Du        
   4703 ****       222.5000  24.5000  25.0000 Du        
   4704 ****       222.5000  24.5000  25.2500 Du        
   4705 ****       222.5000  24.5000  25.5000 Du        
   4706 ****       222.5000  24.5000  25.7500 Du        
   4707 ****       222.5000  24.7500  24.0000 Du        
   4708 ****       222.5000  24.7500  24.2500 Du        
   4709 ****       222.5000  24.7500  24.5000 Du        
   4710 ****       222.5000  24.7500  24.7500 Du        
   4711 ****       222.5000  24.7500  25.0000 Du        
   4712 ****       222.5000  24.7500  25.2500 Du        
   4713 ****       222.5000  24.7500  25.5000 Du        
   4714 ****       222.5000  24.7500  25.7500 Du        
   4715 ****       222.5000  25.0000  24.5000 Du        
   4716 ****       222.5000  25.0000  24.7500 Du        
   4717 ****       222.5000  25.0000  25.0000 Du        
   4718 ****       222.5000  25.0000  25.2500 Du        
   4719 ****       222.5000  25.0000  25.5000 Du        
   4720 ****       222.5000  25.0000  25.7500 Du        
   4721 ****       222.5000  25.2500  24.7500 Du        
   4722 ****       222.5000  25.2500  25.0000 Du        
   4723 ****       222.5000  25.2500  25.2500 Du        
   4724 ****       222.5000  25.2500  25.5000 Du        
   4725 ****       222.5000  25.2500  25.7500 Du        
   4726 ****       222.5000  25.5000  25.0000 Du        
   4727 ****       222.5000  25.5000  25.2500 Du        
   4728 ****       222.5000  25.5000  25.5000 Du        
   4729 ****       222.5000  25.5000  25.7500 Du        
   4730 ****       222.5000  25.7500  25.0000 Du        
   4731 ****       222.5000  25.7500  25.2500 Du        
   4732 ****       222.5000  25.7500  25.5000 Du        
   4733 ****       222.5000  25.7500  25.7500 Du        
   4734 ****       222.5000  26.0000  25.0000 Du        
   4735 ****       222.5000  26.0000  25.2500 Du        
   4736 ****       222.5000  26.0000  25.5000 Du        
   4737 ****       222.5000  26.0000  25.7500 Du        
   4738 ****       222.5000  26.2500  25.0000 Du        
   4739 ****       222.5000  26.2500  25.2500 Du        
   4740 ****       222.5000  26.2500  25.5000 Du        
   4741 ****       222.5000  26.2500  25.7500 Du        
   4742 ****       222.5000  26.5000  25.0000 Du        
   4743 ****       222.5000  26.5000  25.2500 Du        
   4744 ****       222.5000  26.5000  25.5000 Du        
   4745 ****       222.5000  26.5000  25.7500 Du        
   4746 ****       222.5000  26.7500  25.0000 Du        
   4747 ****       222.5000  26.7500  25.2500 Du        
   4748 ****       222.5000  26.7500  25.5000 Du        
   4749 ****       222.5000  26.7500  25.7500 Du        
   4750 ****       222.5000  27.0000  25.0000 Du        
   4751 ****       222.5000  27.0000  25.2500 Du        
   4752 ****       222.5000  27.0000  25.5000 Du        
   4753 ****       222.5000  27.0000  25.7500 Du        
   4754 ****       222.5000  27.2500  25.7500 Du        
   4755 ****       222.7500  20.5000  15.5000 Du        
   4756 ****       222.7500  20.5000  15.7500 Du        
   4757 ****       222.7500  20.5000  16.0000 Du        
   4758 ****       222.7500  20.7500  15.2500 Du        
   4759 ****       222.7500  20.7500  15.5000 Du        
   4760 ****       222.7500  20.7500  15.7500 Du        
   4761 ****       222.7500  20.7500  16.0000 Du        
   4762 ****       222.7500  20.7500  25.7500 Du        
   4763 ****       222.7500  21.0000  15.2500 Du        
   4764 ****       222.7500  21.0000  15.5000 Du        
   4765 ****       222.7500  21.0000  15.7500 Du        
   4766 ****       222.7500  21.0000  16.0000 Du        
   4767 ****       222.7500  21.0000  25.7500 Du        
   4768 ****       222.7500  21.2500  15.2500 Du        
   4769 ****       222.7500  21.2500  15.5000 Du        
   4770 ****       222.7500  21.2500  15.7500 Du        
   4771 ****       222.7500  21.2500  16.0000 Du        
   4772 ****       222.7500  21.2500  25.7500 Du        
   4773 ****       222.7500  21.5000  15.5000 Du        
   4774 ****       222.7500  21.5000  15.7500 Du        
   4775 ****       222.7500  21.5000  16.0000 Du        
   4776 ****       222.7500  21.5000  25.5000 Du        
   4777 ****       222.7500  21.5000  25.7500 Du        
   4778 ****       222.7500  21.7500  16.0000 Du        
   4779 ****       222.7500  21.7500  25.2500 Du        
   4780 ****       222.7500  21.7500  25.5000 Du        
   4781 ****       222.7500  21.7500  25.7500 Du        
   4782 ****       222.7500  22.0000  25.0000 Du        
   4783 ****       222.7500  22.0000  25.2500 Du        
   4784 ****       222.7500  22.0000  25.5000 Du        
   4785 ****       222.7500  22.0000  25.7500 Du        
   4786 ****       222.7500  22.2500  24.7500 Du        
   4787 ****       222.7500  22.2500  25.0000 Du        
   4788 ****       222.7500  22.2500  25.2500 Du        
   4789 ****       222.7500  22.2500  25.5000 Du        
   4790 ****       222.7500  22.2500  25.7500 Du        
   4791 ****       222.7500  22.5000  24.2500 Du        
   4792 ****       222.7500  22.5000  24.5000 Du        
   4793 ****       222.7500  22.5000  24.7500 Du        
   4794 ****       222.7500  22.5000  25.0000 Du        
   4795 ****       222.7500  22.5000  25.2500 Du        
   4796 ****       222.7500  22.5000  25.5000 Du        
   4797 ****       222.7500  22.5000  25.7500 Du        
   4798 ****       222.7500  22.7500  23.5000 Du        
   4799 ****       222.7500  22.7500  23.7500 Du        
   4800 ****       222.7500  22.7500  24.0000 Du        
   4801 ****       222.7500  22.7500  24.2500 Du        
   4802 ****       222.7500  22.7500  24.5000 Du        
   4803 ****       222.7500  22.7500  24.7500 Du        
   4804 ****       222.7500  22.7500  25.0000 Du        
   4805 ****       222.7500  22.7500  25.2500 Du        
   4806 ****       222.7500  22.7500  25.5000 Du        
   4807 ****       222.7500  22.7500  25.7500 Du        
   4808 ****       222.7500  23.0000  23.0000 Du        
   4809 ****       222.7500  23.0000  23.2500 Du        
   4810 ****       222.7500  23.0000  23.5000 Du        
   4811 ****       222.7500  23.0000  23.7500 Du        
   4812 ****       222.7500  23.0000  24.0000 Du        
   4813 ****       222.7500  23.0000  24.2500 Du        
   4814 ****       222.7500  23.0000  24.5000 Du        
   4815 ****       222.7500  23.0000  24.7500 Du        
   4816 ****       222.7500  23.0000  25.0000 Du        
   4817 ****       222.7500  23.0000  25.2500 Du        
   4818 ****       222.7500  23.0000  25.5000 Du        
   4819 ****       222.7500  23.0000  25.7500 Du        
   4820 ****       222.7500  23.2500  23.0000 Du        
   4821 ****       222.7500  23.2500  23.2500 Du        
   4822 ****       222.7500  23.2500  23.5000 Du        
   4823 ****       222.7500  23.2500  23.7500 Du        
   4824 ****       222.7500  23.2500  24.0000 Du        
   4825 ****       222.7500  23.2500  24.2500 Du        
   4826 ****       222.7500  23.2500  24.5000 Du        
   4827 ****       222.7500  23.2500  24.7500 Du        
   4828 ****       222.7500  23.2500  25.0000 Du        
   4829 ****       222.7500  23.2500  25.2500 Du        
   4830 ****       222.7500  23.2500  25.5000 Du        
   4831 ****       222.7500  23.2500  25.7500 Du        
   4832 ****       222.7500  23.5000  23.0000 Du        
   4833 ****       222.7500  23.5000  23.2500 Du        
   4834 ****       222.7500  23.5000  23.5000 Du        
   4835 ****       222.7500  23.5000  23.7500 Du        
   4836 ****       222.7500  23.5000  24.0000 Du        
   4837 ****       222.7500  23.5000  24.2500 Du        
   4838 ****       222.7500  23.5000  24.5000 Du        
   4839 ****       222.7500  23.5000  24.7500 Du        
   4840 ****       222.7500  23.5000  25.0000 Du        
   4841 ****       222.7500  23.5000  25.2500 Du        
   4842 ****       222.7500  23.5000  25.5000 Du        
   4843 ****       222.7500  23.5000  25.7500 Du        
   4844 ****       222.7500  23.7500  23.0000 Du        
   4845 ****       222.7500  23.7500  23.2500 Du        
   4846 ****       222.7500  23.7500  23.5000 Du        
   4847 ****       222.7500  23.7500  23.7500 Du        
   4848 ****       222.7500  23.7500  24.0000 Du        
   4849 ****       222.7500  23.7500  24.2500 Du        
   4850 ****       222.7500  23.7500  24.5000 Du        
   4851 ****       222.7500  23.7500  24.7500 Du        
   4852 ****       222.7500  23.7500  25.0000 Du        
   4853 ****       222.7500  23.7500  25.2500 Du        
   4854 ****       222.7500  23.7500  25.5000 Du        
   4855 ****       222.7500  23.7500  25.7500 Du        
   4856 ****       222.7500  24.0000  23.0000 Du        
   4857 ****       222.7500  24.0000  23.2500 Du        
   4858 ****       222.7500  24.0000  23.5000 Du        
   4859 ****       222.7500  24.0000  23.7500 Du        
   4860 ****       222.7500  24.0000  24.0000 Du        
   4861 ****       222.7500  24.0000  24.2500 Du        
   4862 ****       222.7500  24.0000  24.5000 Du        
   4863 ****       222.7500  24.0000  24.7500 Du        
   4864 ****       222.7500  24.0000  25.0000 Du        
   4865 ****       222.7500  24.0000  25.2500 Du        
   4866 ****       222.7500  24.0000  25.5000 Du        
   4867 ****       222.7500  24.0000  25.7500 Du        
   4868 ****       222.7500  24.2500  23.0000 Du        
   4869 ****       222.7500  24.2500  23.2500 Du        
   4870 ****       222.7500  24.2500  23.5000 Du        
   4871 ****       222.7500  24.2500  23.7500 Du        
   4872 ****       222.7500  24.2500  24.0000 Du        
   4873 ****       222.7500  24.2500  24.2500 Du        
   4874 ****       222.7500  24.2500  24.5000 Du        
   4875 ****       222.7500  24.2500  24.7500 Du        
   4876 ****       222.7500  24.2500  25.0000 Du        
   4877 ****       222.7500  24.2500  25.2500 Du        
   4878 ****       222.7500  24.2500  25.5000 Du        
   4879 ****       222.7500  24.2500  25.7500 Du        
   4880 ****       222.7500  24.5000  23.2500 Du        
   4881 ****       222.7500  24.5000  23.5000 Du        
   4882 ****       222.7500  24.5000  23.7500 Du        
   4883 ****       222.7500  24.5000  24.0000 Du        
   4884 ****       222.7500  24.5000  24.2500 Du        
   4885 ****       222.7500  24.5000  24.5000 Du        
   4886 ****       222.7500  24.5000  24.7500 Du        
   4887 ****       222.7500  24.5000  25.0000 Du        
   4888 ****       222.7500  24.5000  25.2500 Du        
   4889 ****       222.7500  24.5000  25.5000 Du        
   4890 ****       222.7500  24.5000  25.7500 Du        
   4891 ****       222.7500  24.7500  23.2500 Du        
   4892 ****       222.7500  24.7500  23.5000 Du        
   4893 ****       222.7500  24.7500  23.7500 Du        
   4894 ****       222.7500  24.7500  24.0000 Du        
   4895 ****       222.7500  24.7500  24.2500 Du        
   4896 ****       222.7500  24.7500  24.5000 Du        
   4897 ****       222.7500  24.7500  24.7500 Du        
   4898 ****       222.7500  24.7500  25.0000 Du        
   4899 ****       222.7500  24.7500  25.2500 Du        
   4900 ****       222.7500  24.7500  25.5000 Du        
   4901 ****       222.7500  24.7500  25.7500 Du        
   4902 ****       222.7500  25.0000  23.7500 Du        
   4903 ****       222.7500  25.0000  24.0000 Du        
   4904 ****       222.7500  25.0000  24.2500 Du        
   4905 ****       222.7500  25.0000  24.5000 Du        
   4906 ****       222.7500  25.0000  24.7500 Du        
   4907 ****       222.7500  25.0000  25.0000 Du        
   4908 ****       222.7500  25.0000  25.2500 Du        
   4909 ****       222.7500  25.0000  25.5000 Du        
   4910 ****       222.7500  25.0000  25.7500 Du        
   4911 ****       222.7500  25.2500  24.2500 Du        
   4912 ****       222.7500  25.2500  24.5000 Du        
   4913 ****       222.7500  25.2500  24.7500 Du        
   4914 ****       222.7500  25.2500  25.0000 Du        
   4915 ****       222.7500  25.2500  25.2500 Du        
   4916 ****       222.7500  25.2500  25.5000 Du        
   4917 ****       222.7500  25.2500  25.7500 Du        
   4918 ****       222.7500  25.5000  24.5000 Du        
   4919 ****       222.7500  25.5000  24.7500 Du        
   4920 ****       222.7500  25.5000  25.0000 Du        
   4921 ****       222.7500  25.5000  25.2500 Du        
   4922 ****       222.7500  25.5000  25.5000 Du        
   4923 ****       222.7500  25.5000  25.7500 Du        
   4924 ****       222.7500  25.7500  24.7500 Du        
   4925 ****       222.7500  25.7500  25.0000 Du        
   4926 ****       222.7500  25.7500  25.2500 Du        
   4927 ****       222.7500  25.7500  25.5000 Du        
   4928 ****       222.7500  25.7500  25.7500 Du        
   4929 ****       222.7500  26.0000  24.7500 Du        
   4930 ****       222.7500  26.0000  25.0000 Du        
   4931 ****       222.7500  26.0000  25.2500 Du        
   4932 ****       222.7500  26.0000  25.5000 Du        
   4933 ****       222.7500  26.0000  25.7500 Du        
   4934 ****       222.7500  26.2500  24.7500 Du        
   4935 ****       222.7500  26.2500  25.0000 Du        
   4936 ****       222.7500  26.2500  25.2500 Du        
   4937 ****       222.7500  26.2500  25.5000 Du        
   4938 ****       222.7500  26.2500  25.7500 Du        
   4939 ****       222.7500  26.5000  24.7500 Du        
   4940 ****       222.7500  26.5000  25.0000 Du        
   4941 ****       222.7500  26.5000  25.2500 Du        
   4942 ****       222.7500  26.5000  25.5000 Du        
   4943 ****       222.7500  26.5000  25.7500 Du        
   4944 ****       222.7500  26.7500  24.7500 Du        
   4945 ****       222.7500  26.7500  25.0000 Du        
   4946 ****       222.7500  26.7500  25.2500 Du        
   4947 ****       222.7500  26.7500  25.5000 Du        
   4948 ****       222.7500  26.7500  25.7500 Du        
   4949 ****       222.7500  27.0000  24.7500 Du        
   4950 ****       222.7500  27.0000  25.0000 Du        
   4951 ****       222.7500  27.0000  25.2500 Du        
   4952 ****       222.7500  27.0000  25.5000 Du        
   4953 ****       222.7500  27.0000  25.7500 Du        
   4954 ****       222.7500  27.2500  24.7500 Du        
   4955 ****       222.7500  27.2500  25.0000 Du        
   4956 ****       222.7500  27.2500  25.2500 Du        
   4957 ****       222.7500  27.2500  25.5000 Du        
   4958 ****       222.7500  27.2500  25.7500 Du        
   4959 ****       222.7500  27.5000  25.0000 Du        
   4960 ****       222.7500  27.5000  25.2500 Du        
   4961 ****       222.7500  27.5000  25.5000 Du        
   4962 ****       222.7500  27.5000  25.7500 Du        
   4963 ****       222.7500  27.7500  25.7500 Du        
   4964 ****       223.0000  14.2500  17.5000 Du        
   4965 ****       223.0000  14.2500  17.7500 Du        
   4966 ****       223.0000  14.2500  18.0000 Du        
   4967 ****       223.0000  14.5000  17.7500 Du        
   4968 ****       223.0000  14.7500  17.5000 Du        
   4969 ****       223.0000  14.7500  17.7500 Du        
   4970 ****       223.0000  19.7500  15.7500 Du        
   4971 ****       223.0000  20.0000  15.7500 Du        
   4972 ****       223.0000  20.2500  15.2500 Du        
   4973 ****       223.0000  20.2500  15.5000 Du        
   4974 ****       223.0000  20.2500  15.7500 Du        
   4975 ****       223.0000  20.5000  14.0000 Du        
   4976 ****       223.0000  20.5000  14.2500 Du        
   4977 ****       223.0000  20.5000  14.7500 Du        
   4978 ****       223.0000  20.5000  15.0000 Du        
   4979 ****       223.0000  20.5000  15.2500 Du        
   4980 ****       223.0000  20.5000  15.5000 Du        
   4981 ****       223.0000  20.5000  15.7500 Du        
   4982 ****       223.0000  20.7500  13.0000 Du        
   4983 ****       223.0000  20.7500  13.2500 Du        
   4984 ****       223.0000  20.7500  13.5000 Du        
   4985 ****       223.0000  20.7500  13.7500 Du        
   4986 ****       223.0000  20.7500  14.0000 Du        
   4987 ****       223.0000  20.7500  14.2500 Du        
   4988 ****       223.0000  20.7500  14.5000 Du        
   4989 ****       223.0000  20.7500  14.7500 Du        
   4990 ****       223.0000  20.7500  15.0000 Du        
   4991 ****       223.0000  20.7500  15.2500 Du        
   4992 ****       223.0000  20.7500  15.5000 Du        
   4993 ****       223.0000  20.7500  15.7500 Du        
   4994 ****       223.0000  20.7500  25.7500 Du        
   4995 ****       223.0000  21.0000  13.0000 Du        
   4996 ****       223.0000  21.0000  13.2500 Du        
   4997 ****       223.0000  21.0000  13.5000 Du        
   4998 ****       223.0000  21.0000  13.7500 Du        
   4999 ****       223.0000  21.0000  14.0000 Du        
   5000 ****       223.0000  21.0000  14.2500 Du        
   5001 ****       223.0000  21.0000  14.5000 Du        
   5002 ****       223.0000  21.0000  14.7500 Du        
   5003 ****       223.0000  21.0000  15.0000 Du        
   5004 ****       223.0000  21.0000  15.2500 Du        
   5005 ****       223.0000  21.0000  15.5000 Du        
   5006 ****       223.0000  21.0000  15.7500 Du        
   5007 ****       223.0000  21.0000  25.7500 Du        
   5008 ****       223.0000  21.2500  14.7500 Du        
   5009 ****       223.0000  21.2500  15.0000 Du        
   5010 ****       223.0000  21.2500  15.2500 Du        
   5011 ****       223.0000  21.2500  15.5000 Du        
   5012 ****       223.0000  21.2500  15.7500 Du        
   5013 ****       223.0000  21.2500  16.0000 Du        
   5014 ****       223.0000  21.2500  25.7500 Du        
   5015 ****       223.0000  21.5000  15.2500 Du        
   5016 ****       223.0000  21.5000  15.5000 Du        
   5017 ****       223.0000  21.5000  15.7500 Du        
   5018 ****       223.0000  21.5000  25.5000 Du        
   5019 ****       223.0000  21.5000  25.7500 Du        
   5020 ****       223.0000  21.7500  15.7500 Du        
   5021 ****       223.0000  21.7500  25.2500 Du        
   5022 ****       223.0000  21.7500  25.5000 Du        
   5023 ****       223.0000  21.7500  25.7500 Du        
   5024 ****       223.0000  22.0000  25.0000 Du        
   5025 ****       223.0000  22.0000  25.2500 Du        
   5026 ****       223.0000  22.0000  25.5000 Du        
   5027 ****       223.0000  22.0000  25.7500 Du        
   5028 ****       223.0000  22.2500  24.7500 Du        
   5029 ****       223.0000  22.2500  25.0000 Du        
   5030 ****       223.0000  22.2500  25.2500 Du        
   5031 ****       223.0000  22.2500  25.5000 Du        
   5032 ****       223.0000  22.2500  25.7500 Du        
   5033 ****       223.0000  22.5000  24.2500 Du        
   5034 ****       223.0000  22.5000  24.5000 Du        
   5035 ****       223.0000  22.5000  24.7500 Du        
   5036 ****       223.0000  22.5000  25.0000 Du        
   5037 ****       223.0000  22.5000  25.2500 Du        
   5038 ****       223.0000  22.5000  25.5000 Du        
   5039 ****       223.0000  22.5000  25.7500 Du        
   5040 ****       223.0000  22.7500  23.5000 Du        
   5041 ****       223.0000  22.7500  23.7500 Du        
   5042 ****       223.0000  22.7500  24.0000 Du        
   5043 ****       223.0000  22.7500  24.2500 Du        
   5044 ****       223.0000  22.7500  24.5000 Du        
   5045 ****       223.0000  22.7500  24.7500 Du        
   5046 ****       223.0000  22.7500  25.0000 Du        
   5047 ****       223.0000  22.7500  25.2500 Du        
   5048 ****       223.0000  22.7500  25.5000 Du        
   5049 ****       223.0000  22.7500  25.7500 Du        
   5050 ****       223.0000  23.0000  23.0000 Du        
   5051 ****       223.0000  23.0000  23.2500 Du        
   5052 ****       223.0000  23.0000  23.5000 Du        
   5053 ****       223.0000  23.0000  23.7500 Du        
   5054 ****       223.0000  23.0000  24.0000 Du        
   5055 ****       223.0000  23.0000  24.2500 Du        
   5056 ****       223.0000  23.0000  24.5000 Du        
   5057 ****       223.0000  23.0000  24.7500 Du        
   5058 ****       223.0000  23.0000  25.0000 Du        
   5059 ****       223.0000  23.0000  25.2500 Du        
   5060 ****       223.0000  23.0000  25.5000 Du        
   5061 ****       223.0000  23.0000  25.7500 Du        
   5062 ****       223.0000  23.2500  22.7500 Du        
   5063 ****       223.0000  23.2500  23.0000 Du        
   5064 ****       223.0000  23.2500  23.2500 Du        
   5065 ****       223.0000  23.2500  23.5000 Du        
   5066 ****       223.0000  23.2500  23.7500 Du        
   5067 ****       223.0000  23.2500  24.0000 Du        
   5068 ****       223.0000  23.2500  24.2500 Du        
   5069 ****       223.0000  23.2500  24.5000 Du        
   5070 ****       223.0000  23.2500  24.7500 Du        
   5071 ****       223.0000  23.2500  25.0000 Du        
   5072 ****       223.0000  23.2500  25.2500 Du        
   5073 ****       223.0000  23.2500  25.5000 Du        
   5074 ****       223.0000  23.2500  25.7500 Du        
   5075 ****       223.0000  23.5000  22.7500 Du        
   5076 ****       223.0000  23.5000  23.0000 Du        
   5077 ****       223.0000  23.5000  23.2500 Du        
   5078 ****       223.0000  23.5000  23.5000 Du        
   5079 ****       223.0000  23.5000  23.7500 Du        
   5080 ****       223.0000  23.5000  24.0000 Du        
   5081 ****       223.0000  23.5000  24.2500 Du        
   5082 ****       223.0000  23.5000  24.5000 Du        
   5083 ****       223.0000  23.5000  24.7500 Du        
   5084 ****       223.0000  23.5000  25.0000 Du        
   5085 ****       223.0000  23.5000  25.2500 Du        
   5086 ****       223.0000  23.5000  25.5000 Du        
   5087 ****       223.0000  23.5000  25.7500 Du        
   5088 ****       223.0000  23.7500  22.7500 Du        
   5089 ****       223.0000  23.7500  23.0000 Du        
   5090 ****       223.0000  23.7500  23.2500 Du        
   5091 ****       223.0000  23.7500  23.5000 Du        
   5092 ****       223.0000  23.7500  23.7500 Du        
   5093 ****       223.0000  23.7500  24.0000 Du        
   5094 ****       223.0000  23.7500  24.2500 Du        
   5095 ****       223.0000  23.7500  24.5000 Du        
   5096 ****       223.0000  23.7500  24.7500 Du        
   5097 ****       223.0000  23.7500  25.0000 Du        
   5098 ****       223.0000  23.7500  25.2500 Du        
   5099 ****       223.0000  23.7500  25.5000 Du        
   5100 ****       223.0000  23.7500  25.7500 Du        
   5101 ****       223.0000  24.0000  23.0000 Du        
   5102 ****       223.0000  24.0000  23.2500 Du        
   5103 ****       223.0000  24.0000  23.5000 Du        
   5104 ****       223.0000  24.0000  23.7500 Du        
   5105 ****       223.0000  24.0000  24.0000 Du        
   5106 ****       223.0000  24.0000  24.2500 Du        
   5107 ****       223.0000  24.0000  24.5000 Du        
   5108 ****       223.0000  24.0000  24.7500 Du        
   5109 ****       223.0000  24.0000  25.0000 Du        
   5110 ****       223.0000  24.0000  25.2500 Du        
   5111 ****       223.0000  24.0000  25.5000 Du        
   5112 ****       223.0000  24.0000  25.7500 Du        
   5113 ****       223.0000  24.2500  23.0000 Du        
   5114 ****       223.0000  24.2500  23.2500 Du        
   5115 ****       223.0000  24.2500  23.5000 Du        
   5116 ****       223.0000  24.2500  23.7500 Du        
   5117 ****       223.0000  24.2500  24.0000 Du        
   5118 ****       223.0000  24.2500  24.2500 Du        
   5119 ****       223.0000  24.2500  24.5000 Du        
   5120 ****       223.0000  24.2500  24.7500 Du        
   5121 ****       223.0000  24.2500  25.0000 Du        
   5122 ****       223.0000  24.2500  25.2500 Du        
   5123 ****       223.0000  24.2500  25.5000 Du        
   5124 ****       223.0000  24.2500  25.7500 Du        
   5125 ****       223.0000  24.5000  23.0000 Du        
   5126 ****       223.0000  24.5000  23.2500 Du        
   5127 ****       223.0000  24.5000  23.5000 Du        
   5128 ****       223.0000  24.5000  23.7500 Du        
   5129 ****       223.0000  24.5000  24.0000 Du        
   5130 ****       223.0000  24.5000  24.2500 Du        
   5131 ****       223.0000  24.5000  24.5000 Du        
   5132 ****       223.0000  24.5000  24.7500 Du        
   5133 ****       223.0000  24.5000  25.0000 Du        
   5134 ****       223.0000  24.5000  25.2500 Du        
   5135 ****       223.0000  24.5000  25.5000 Du        
   5136 ****       223.0000  24.5000  25.7500 Du        
   5137 ****       223.0000  24.7500  23.0000 Du        
   5138 ****       223.0000  24.7500  23.2500 Du        
   5139 ****       223.0000  24.7500  23.5000 Du        
   5140 ****       223.0000  24.7500  23.7500 Du        
   5141 ****       223.0000  24.7500  24.0000 Du        
   5142 ****       223.0000  24.7500  24.2500 Du        
   5143 ****       223.0000  24.7500  24.5000 Du        
   5144 ****       223.0000  24.7500  24.7500 Du        
   5145 ****       223.0000  24.7500  25.0000 Du        
   5146 ****       223.0000  24.7500  25.2500 Du        
   5147 ****       223.0000  24.7500  25.5000 Du        
   5148 ****       223.0000  24.7500  25.7500 Du        
   5149 ****       223.0000  25.0000  23.0000 Du        
   5150 ****       223.0000  25.0000  23.2500 Du        
   5151 ****       223.0000  25.0000  23.5000 Du        
   5152 ****       223.0000  25.0000  23.7500 Du        
   5153 ****       223.0000  25.0000  24.0000 Du        
   5154 ****       223.0000  25.0000  24.2500 Du        
   5155 ****       223.0000  25.0000  24.5000 Du        
   5156 ****       223.0000  25.0000  24.7500 Du        
   5157 ****       223.0000  25.0000  25.0000 Du        
   5158 ****       223.0000  25.0000  25.2500 Du        
   5159 ****       223.0000  25.0000  25.5000 Du        
   5160 ****       223.0000  25.0000  25.7500 Du        
   5161 ****       223.0000  25.2500  23.2500 Du        
   5162 ****       223.0000  25.2500  23.5000 Du        
   5163 ****       223.0000  25.2500  23.7500 Du        
   5164 ****       223.0000  25.2500  24.0000 Du        
   5165 ****       223.0000  25.2500  24.2500 Du        
   5166 ****       223.0000  25.2500  24.5000 Du        
   5167 ****       223.0000  25.2500  24.7500 Du        
   5168 ****       223.0000  25.2500  25.0000 Du        
   5169 ****       223.0000  25.2500  25.2500 Du        
   5170 ****       223.0000  25.2500  25.5000 Du        
   5171 ****       223.0000  25.2500  25.7500 Du        
   5172 ****       223.0000  25.5000  23.7500 Du        
   5173 ****       223.0000  25.5000  24.0000 Du        
   5174 ****       223.0000  25.5000  24.2500 Du        
   5175 ****       223.0000  25.5000  24.5000 Du        
   5176 ****       223.0000  25.5000  24.7500 Du        
   5177 ****       223.0000  25.5000  25.0000 Du        
   5178 ****       223.0000  25.5000  25.2500 Du        
   5179 ****       223.0000  25.5000  25.5000 Du        
   5180 ****       223.0000  25.5000  25.7500 Du        
   5181 ****       223.0000  25.7500  24.0000 Du        
   5182 ****       223.0000  25.7500  24.2500 Du        
   5183 ****       223.0000  25.7500  24.5000 Du        
   5184 ****       223.0000  25.7500  24.7500 Du        
   5185 ****       223.0000  25.7500  25.0000 Du        
   5186 ****       223.0000  25.7500  25.2500 Du        
   5187 ****       223.0000  25.7500  25.5000 Du        
   5188 ****       223.0000  25.7500  25.7500 Du        
   5189 ****       223.0000  26.0000  24.0000 Du        
   5190 ****       223.0000  26.0000  24.2500 Du        
   5191 ****       223.0000  26.0000  24.5000 Du        
   5192 ****       223.0000  26.0000  24.7500 Du        
   5193 ****       223.0000  26.0000  25.0000 Du        
   5194 ****       223.0000  26.0000  25.2500 Du        
   5195 ****       223.0000  26.0000  25.5000 Du        
   5196 ****       223.0000  26.0000  25.7500 Du        
   5197 ****       223.0000  26.2500  24.2500 Du        
   5198 ****       223.0000  26.2500  24.5000 Du        
   5199 ****       223.0000  26.2500  24.7500 Du        
   5200 ****       223.0000  26.2500  25.0000 Du        
   5201 ****       223.0000  26.2500  25.2500 Du        
   5202 ****       223.0000  26.2500  25.5000 Du        
   5203 ****       223.0000  26.2500  25.7500 Du        
   5204 ****       223.0000  26.5000  24.2500 Du        
   5205 ****       223.0000  26.5000  24.5000 Du        
   5206 ****       223.0000  26.5000  24.7500 Du        
   5207 ****       223.0000  26.5000  25.0000 Du        
   5208 ****       223.0000  26.5000  25.2500 Du        
   5209 ****       223.0000  26.5000  25.5000 Du        
   5210 ****       223.0000  26.5000  25.7500 Du        
   5211 ****       223.0000  26.7500  24.2500 Du        
   5212 ****       223.0000  26.7500  24.5000 Du        
   5213 ****       223.0000  26.7500  24.7500 Du        
   5214 ****       223.0000  26.7500  25.0000 Du        
   5215 ****       223.0000  26.7500  25.2500 Du        
   5216 ****       223.0000  26.7500  25.5000 Du        
   5217 ****       223.0000  26.7500  25.7500 Du        
   5218 ****       223.0000  27.0000  24.2500 Du        
   5219 ****       223.0000  27.0000  24.5000 Du        
   5220 ****       223.0000  27.0000  24.7500 Du        
   5221 ****       223.0000  27.0000  25.0000 Du        
   5222 ****       223.0000  27.0000  25.2500 Du        
   5223 ****       223.0000  27.0000  25.5000 Du        
   5224 ****       223.0000  27.0000  25.7500 Du        
   5225 ****       223.0000  27.2500  24.5000 Du        
   5226 ****       223.0000  27.2500  24.7500 Du        
   5227 ****       223.0000  27.2500  25.0000 Du        
   5228 ****       223.0000  27.2500  25.2500 Du        
   5229 ****       223.0000  27.2500  25.5000 Du        
   5230 ****       223.0000  27.2500  25.7500 Du        
   5231 ****       223.0000  27.5000  24.7500 Du        
   5232 ****       223.0000  27.5000  25.0000 Du        
   5233 ****       223.0000  27.5000  25.2500 Du        
   5234 ****       223.0000  27.5000  25.5000 Du        
   5235 ****       223.0000  27.5000  25.7500 Du        
   5236 ****       223.0000  27.7500  25.0000 Du        
   5237 ****       223.0000  27.7500  25.2500 Du        
   5238 ****       223.0000  27.7500  25.5000 Du        
   5239 ****       223.0000  27.7500  25.7500 Du        
   5240 ****       223.0000  28.0000  25.2500 Du        
   5241 ****       223.0000  28.0000  25.5000 Du        
   5242 ****       223.0000  28.0000  25.7500 Du        
   5243 ****       223.0000  28.2500  25.7500 Du        
   5244 ****       223.2500  14.0000  17.5000 Du        
   5245 ****       223.2500  14.0000  17.7500 Du        
   5246 ****       223.2500  14.0000  18.0000 Du        
   5247 ****       223.2500  14.2500  17.5000 Du        
   5248 ****       223.2500  14.2500  17.7500 Du        
   5249 ****       223.2500  14.2500  18.0000 Du        
   5250 ****       223.2500  14.2500  18.2500 Du        
   5251 ****       223.2500  14.5000  17.5000 Du        
   5252 ****       223.2500  14.5000  17.7500 Du        
   5253 ****       223.2500  14.5000  18.0000 Du        
   5254 ****       223.2500  14.7500  17.5000 Du        
   5255 ****       223.2500  14.7500  17.7500 Du        
   5256 ****       223.2500  14.7500  18.0000 Du        
   5257 ****       223.2500  15.0000  17.5000 Du        
   5258 ****       223.2500  15.0000  17.7500 Du        
   5259 ****       223.2500  15.0000  18.0000 Du        
   5260 ****       223.2500  15.2500  17.7500 Du        
   5261 ****       223.2500  15.5000  17.5000 Du        
   5262 ****       223.2500  15.5000  17.7500 Du        
   5263 ****       223.2500  15.7500  17.5000 Du        
   5264 ****       223.2500  15.7500  17.7500 Du        
   5265 ****       223.2500  16.0000  17.5000 Du        
   5266 ****       223.2500  16.0000  17.7500 Du        
   5267 ****       223.2500  16.2500  17.7500 Du        
   5268 ****       223.2500  16.2500  18.0000 Du        
   5269 ****       223.2500  16.7500  17.7500 Du        
   5270 ****       223.2500  17.0000  17.7500 Du        
   5271 ****       223.2500  17.0000  18.0000 Du        
   5272 ****       223.2500  17.2500  17.7500 Du        
   5273 ****       223.2500  17.5000  17.5000 Du        
   5274 ****       223.2500  17.5000  17.7500 Du        
   5275 ****       223.2500  17.7500  17.5000 Du        
   5276 ****       223.2500  17.7500  17.7500 Du        
   5277 ****       223.2500  19.7500  15.7500 Du        
   5278 ****       223.2500  20.0000  14.0000 Du        
   5279 ****       223.2500  20.0000  14.2500 Du        
   5280 ****       223.2500  20.0000  14.7500 Du        
   5281 ****       223.2500  20.0000  15.0000 Du        
   5282 ****       223.2500  20.0000  15.2500 Du        
   5283 ****       223.2500  20.0000  15.5000 Du        
   5284 ****       223.2500  20.0000  15.7500 Du        
   5285 ****       223.2500  20.2500  13.2500 Du        
   5286 ****       223.2500  20.2500  13.5000 Du        
   5287 ****       223.2500  20.2500  13.7500 Du        
   5288 ****       223.2500  20.2500  14.0000 Du        
   5289 ****       223.2500  20.2500  14.2500 Du        
   5290 ****       223.2500  20.2500  14.5000 Du        
   5291 ****       223.2500  20.2500  14.7500 Du        
   5292 ****       223.2500  20.2500  15.0000 Du        
   5293 ****       223.2500  20.2500  15.2500 Du        
   5294 ****       223.2500  20.2500  15.5000 Du        
   5295 ****       223.2500  20.2500  15.7500 Du        
   5296 ****       223.2500  20.5000  13.0000 Du        
   5297 ****       223.2500  20.5000  13.2500 Du        
   5298 ****       223.2500  20.5000  13.5000 Du        
   5299 ****       223.2500  20.5000  13.7500 Du        
   5300 ****       223.2500  20.5000  14.0000 Du        
   5301 ****       223.2500  20.5000  14.2500 Du        
   5302 ****       223.2500  20.5000  14.5000 Du        
   5303 ****       223.2500  20.5000  14.7500 Du        
   5304 ****       223.2500  20.5000  15.0000 Du        
   5305 ****       223.2500  20.5000  15.2500 Du        
   5306 ****       223.2500  20.5000  15.5000 Du        
   5307 ****       223.2500  20.5000  15.7500 Du        
   5308 ****       223.2500  20.7500  12.7500 Du        
   5309 ****       223.2500  20.7500  13.0000 Du        
   5310 ****       223.2500  20.7500  13.2500 Du        
   5311 ****       223.2500  20.7500  13.5000 Du        
   5312 ****       223.2500  20.7500  13.7500 Du        
   5313 ****       223.2500  20.7500  14.0000 Du        
   5314 ****       223.2500  20.7500  14.2500 Du        
   5315 ****       223.2500  20.7500  14.5000 Du        
   5316 ****       223.2500  20.7500  14.7500 Du        
   5317 ****       223.2500  20.7500  15.0000 Du        
   5318 ****       223.2500  20.7500  15.2500 Du        
   5319 ****       223.2500  20.7500  15.5000 Du        
   5320 ****       223.2500  20.7500  15.7500 Du        
   5321 ****       223.2500  21.0000  12.7500 Du        
   5322 ****       223.2500  21.0000  13.0000 Du        
   5323 ****       223.2500  21.0000  13.2500 Du        
   5324 ****       223.2500  21.0000  13.5000 Du        
   5325 ****       223.2500  21.0000  13.7500 Du        
   5326 ****       223.2500  21.0000  14.0000 Du        
   5327 ****       223.2500  21.0000  14.2500 Du        
   5328 ****       223.2500  21.0000  14.5000 Du        
   5329 ****       223.2500  21.0000  14.7500 Du        
   5330 ****       223.2500  21.0000  15.0000 Du        
   5331 ****       223.2500  21.0000  15.2500 Du        
   5332 ****       223.2500  21.0000  15.5000 Du        
   5333 ****       223.2500  21.0000  15.7500 Du        
   5334 ****       223.2500  21.0000  25.7500 Du        
   5335 ****       223.2500  21.2500  13.0000 Du        
   5336 ****       223.2500  21.2500  13.2500 Du        
   5337 ****       223.2500  21.2500  13.5000 Du        
   5338 ****       223.2500  21.2500  14.2500 Du        
   5339 ****       223.2500  21.2500  14.5000 Du        
   5340 ****       223.2500  21.2500  14.7500 Du        
   5341 ****       223.2500  21.2500  15.0000 Du        
   5342 ****       223.2500  21.2500  15.2500 Du        
   5343 ****       223.2500  21.2500  15.5000 Du        
   5344 ****       223.2500  21.2500  15.7500 Du        
   5345 ****       223.2500  21.2500  25.7500 Du        
   5346 ****       223.2500  21.5000  15.0000 Du        
   5347 ****       223.2500  21.5000  15.2500 Du        
   5348 ****       223.2500  21.5000  15.5000 Du        
   5349 ****       223.2500  21.5000  25.5000 Du        
   5350 ****       223.2500  21.5000  25.7500 Du        
   5351 ****       223.2500  21.7500  25.2500 Du        
   5352 ****       223.2500  21.7500  25.5000 Du        
   5353 ****       223.2500  21.7500  25.7500 Du        
   5354 ****       223.2500  22.0000  25.0000 Du        
   5355 ****       223.2500  22.0000  25.2500 Du        
   5356 ****       223.2500  22.0000  25.5000 Du        
   5357 ****       223.2500  22.0000  25.7500 Du        
   5358 ****       223.2500  22.2500  24.7500 Du        
   5359 ****       223.2500  22.2500  25.0000 Du        
   5360 ****       223.2500  22.2500  25.2500 Du        
   5361 ****       223.2500  22.2500  25.5000 Du        
   5362 ****       223.2500  22.2500  25.7500 Du        
   5363 ****       223.2500  22.5000  24.2500 Du        
   5364 ****       223.2500  22.5000  24.5000 Du        
   5365 ****       223.2500  22.5000  24.7500 Du        
   5366 ****       223.2500  22.5000  25.0000 Du        
   5367 ****       223.2500  22.5000  25.2500 Du        
   5368 ****       223.2500  22.5000  25.5000 Du        
   5369 ****       223.2500  22.5000  25.7500 Du        
   5370 ****       223.2500  22.7500  23.5000 Du        
   5371 ****       223.2500  22.7500  23.7500 Du        
   5372 ****       223.2500  22.7500  24.0000 Du        
   5373 ****       223.2500  22.7500  24.2500 Du        
   5374 ****       223.2500  22.7500  24.5000 Du        
   5375 ****       223.2500  22.7500  24.7500 Du        
   5376 ****       223.2500  22.7500  25.0000 Du        
   5377 ****       223.2500  22.7500  25.2500 Du        
   5378 ****       223.2500  22.7500  25.5000 Du        
   5379 ****       223.2500  22.7500  25.7500 Du        
   5380 ****       223.2500  23.0000  23.0000 Du        
   5381 ****       223.2500  23.0000  23.2500 Du        
   5382 ****       223.2500  23.0000  23.5000 Du        
   5383 ****       223.2500  23.0000  23.7500 Du        
   5384 ****       223.2500  23.0000  24.0000 Du        
   5385 ****       223.2500  23.0000  24.2500 Du        
   5386 ****       223.2500  23.0000  24.5000 Du        
   5387 ****       223.2500  23.0000  24.7500 Du        
   5388 ****       223.2500  23.0000  25.0000 Du        
   5389 ****       223.2500  23.0000  25.2500 Du        
   5390 ****       223.2500  23.0000  25.5000 Du        
   5391 ****       223.2500  23.0000  25.7500 Du        
   5392 ****       223.2500  23.2500  22.7500 Du        
   5393 ****       223.2500  23.2500  23.0000 Du        
   5394 ****       223.2500  23.2500  23.2500 Du        
   5395 ****       223.2500  23.2500  23.5000 Du        
   5396 ****       223.2500  23.2500  23.7500 Du        
   5397 ****       223.2500  23.2500  24.0000 Du        
   5398 ****       223.2500  23.2500  24.2500 Du        
   5399 ****       223.2500  23.2500  24.5000 Du        
   5400 ****       223.2500  23.2500  24.7500 Du        
   5401 ****       223.2500  23.2500  25.0000 Du        
   5402 ****       223.2500  23.2500  25.2500 Du        
   5403 ****       223.2500  23.2500  25.5000 Du        
   5404 ****       223.2500  23.2500  25.7500 Du        
   5405 ****       223.2500  23.5000  22.7500 Du        
   5406 ****       223.2500  23.5000  23.0000 Du        
   5407 ****       223.2500  23.5000  23.2500 Du        
   5408 ****       223.2500  23.5000  23.5000 Du        
   5409 ****       223.2500  23.5000  23.7500 Du        
   5410 ****       223.2500  23.5000  24.0000 Du        
   5411 ****       223.2500  23.5000  24.2500 Du        
   5412 ****       223.2500  23.5000  24.5000 Du        
   5413 ****       223.2500  23.5000  24.7500 Du        
   5414 ****       223.2500  23.5000  25.0000 Du        
   5415 ****       223.2500  23.5000  25.2500 Du        
   5416 ****       223.2500  23.5000  25.5000 Du        
   5417 ****       223.2500  23.5000  25.7500 Du        
   5418 ****       223.2500  23.7500  22.7500 Du        
   5419 ****       223.2500  23.7500  23.0000 Du        
   5420 ****       223.2500  23.7500  23.2500 Du        
   5421 ****       223.2500  23.7500  23.5000 Du        
   5422 ****       223.2500  23.7500  23.7500 Du        
   5423 ****       223.2500  23.7500  24.0000 Du        
   5424 ****       223.2500  23.7500  24.2500 Du        
   5425 ****       223.2500  23.7500  24.5000 Du        
   5426 ****       223.2500  23.7500  24.7500 Du        
   5427 ****       223.2500  23.7500  25.0000 Du        
   5428 ****       223.2500  23.7500  25.2500 Du        
   5429 ****       223.2500  23.7500  25.5000 Du        
   5430 ****       223.2500  23.7500  25.7500 Du        
   5431 ****       223.2500  24.0000  22.7500 Du        
   5432 ****       223.2500  24.0000  23.0000 Du        
   5433 ****       223.2500  24.0000  23.2500 Du        
   5434 ****       223.2500  24.0000  23.5000 Du        
   5435 ****       223.2500  24.0000  23.7500 Du        
   5436 ****       223.2500  24.0000  24.0000 Du        
   5437 ****       223.2500  24.0000  24.2500 Du        
   5438 ****       223.2500  24.0000  24.5000 Du        
   5439 ****       223.2500  24.0000  24.7500 Du        
   5440 ****       223.2500  24.0000  25.0000 Du        
   5441 ****       223.2500  24.0000  25.2500 Du        
   5442 ****       223.2500  24.0000  25.5000 Du        
   5443 ****       223.2500  24.0000  25.7500 Du        
   5444 ****       223.2500  24.2500  22.7500 Du        
   5445 ****       223.2500  24.2500  23.0000 Du        
   5446 ****       223.2500  24.2500  23.2500 Du        
   5447 ****       223.2500  24.2500  23.5000 Du        
   5448 ****       223.2500  24.2500  23.7500 Du        
   5449 ****       223.2500  24.2500  24.0000 Du        
   5450 ****       223.2500  24.2500  24.2500 Du        
   5451 ****       223.2500  24.2500  24.5000 Du        
   5452 ****       223.2500  24.2500  24.7500 Du        
   5453 ****       223.2500  24.2500  25.0000 Du        
   5454 ****       223.2500  24.2500  25.2500 Du        
   5455 ****       223.2500  24.2500  25.5000 Du        
   5456 ****       223.2500  24.2500  25.7500 Du        
   5457 ****       223.2500  24.5000  22.7500 Du        
   5458 ****       223.2500  24.5000  23.0000 Du        
   5459 ****       223.2500  24.5000  23.2500 Du        
   5460 ****       223.2500  24.5000  23.5000 Du        
   5461 ****       223.2500  24.5000  23.7500 Du        
   5462 ****       223.2500  24.5000  24.0000 Du        
   5463 ****       223.2500  24.5000  24.2500 Du        
   5464 ****       223.2500  24.5000  24.5000 Du        
   5465 ****       223.2500  24.5000  24.7500 Du        
   5466 ****       223.2500  24.5000  25.0000 Du        
   5467 ****       223.2500  24.5000  25.2500 Du        
   5468 ****       223.2500  24.5000  25.5000 Du        
   5469 ****       223.2500  24.5000  25.7500 Du        
   5470 ****       223.2500  24.7500  22.7500 Du        
   5471 ****       223.2500  24.7500  23.0000 Du        
   5472 ****       223.2500  24.7500  23.2500 Du        
   5473 ****       223.2500  24.7500  23.5000 Du        
   5474 ****       223.2500  24.7500  23.7500 Du        
   5475 ****       223.2500  24.7500  24.0000 Du        
   5476 ****       223.2500  24.7500  24.2500 Du        
   5477 ****       223.2500  24.7500  24.5000 Du        
   5478 ****       223.2500  24.7500  24.7500 Du        
   5479 ****       223.2500  24.7500  25.0000 Du        
   5480 ****       223.2500  24.7500  25.2500 Du        
   5481 ****       223.2500  24.7500  25.5000 Du        
   5482 ****       223.2500  24.7500  25.7500 Du        
   5483 ****       223.2500  25.0000  22.7500 Du        
   5484 ****       223.2500  25.0000  23.0000 Du        
   5485 ****       223.2500  25.0000  23.2500 Du        
   5486 ****       223.2500  25.0000  23.5000 Du        
   5487 ****       223.2500  25.0000  23.7500 Du        
   5488 ****       223.2500  25.0000  24.0000 Du        
   5489 ****       223.2500  25.0000  24.2500 Du        
   5490 ****       223.2500  25.0000  24.5000 Du        
   5491 ****       223.2500  25.0000  24.7500 Du        
   5492 ****       223.2500  25.0000  25.0000 Du        
   5493 ****       223.2500  25.0000  25.2500 Du        
   5494 ****       223.2500  25.0000  25.5000 Du        
   5495 ****       223.2500  25.0000  25.7500 Du        
   5496 ****       223.2500  25.2500  22.7500 Du        
   5497 ****       223.2500  25.2500  23.0000 Du        
   5498 ****       223.2500  25.2500  23.2500 Du        
   5499 ****       223.2500  25.2500  23.5000 Du        
   5500 ****       223.2500  25.2500  23.7500 Du        
   5501 ****       223.2500  25.2500  24.0000 Du        
   5502 ****       223.2500  25.2500  24.2500 Du        
   5503 ****       223.2500  25.2500  24.5000 Du        
   5504 ****       223.2500  25.2500  24.7500 Du        
   5505 ****       223.2500  25.2500  25.0000 Du        
   5506 ****       223.2500  25.2500  25.2500 Du        
   5507 ****       223.2500  25.2500  25.5000 Du        
   5508 ****       223.2500  25.2500  25.7500 Du        
   5509 ****       223.2500  25.5000  23.0000 Du        
   5510 ****       223.2500  25.5000  23.2500 Du        
   5511 ****       223.2500  25.5000  23.5000 Du        
   5512 ****       223.2500  25.5000  23.7500 Du        
   5513 ****       223.2500  25.5000  24.0000 Du        
   5514 ****       223.2500  25.5000  24.2500 Du        
   5515 ****       223.2500  25.5000  24.5000 Du        
   5516 ****       223.2500  25.5000  24.7500 Du        
   5517 ****       223.2500  25.5000  25.0000 Du        
   5518 ****       223.2500  25.5000  25.2500 Du        
   5519 ****       223.2500  25.5000  25.5000 Du        
   5520 ****       223.2500  25.5000  25.7500 Du        
   5521 ****       223.2500  25.7500  23.0000 Du        
   5522 ****       223.2500  25.7500  23.2500 Du        
   5523 ****       223.2500  25.7500  23.5000 Du        
   5524 ****       223.2500  25.7500  23.7500 Du        
   5525 ****       223.2500  25.7500  24.0000 Du        
   5526 ****       223.2500  25.7500  24.2500 Du        
   5527 ****       223.2500  25.7500  24.5000 Du        
   5528 ****       223.2500  25.7500  24.7500 Du        
   5529 ****       223.2500  25.7500  25.0000 Du        
   5530 ****       223.2500  25.7500  25.2500 Du        
   5531 ****       223.2500  25.7500  25.5000 Du        
   5532 ****       223.2500  25.7500  25.7500 Du        
   5533 ****       223.2500  26.0000  23.2500 Du        
   5534 ****       223.2500  26.0000  23.5000 Du        
   5535 ****       223.2500  26.0000  23.7500 Du        
   5536 ****       223.2500  26.0000  24.0000 Du        
   5537 ****       223.2500  26.0000  24.2500 Du        
   5538 ****       223.2500  26.0000  24.5000 Du        
   5539 ****       223.2500  26.0000  24.7500 Du        
   5540 ****       223.2500  26.0000  25.0000 Du        
   5541 ****       223.2500  26.0000  25.2500 Du        
   5542 ****       223.2500  26.0000  25.5000 Du        
   5543 ****       223.2500  26.0000  25.7500 Du        
   5544 ****       223.2500  26.2500  23.5000 Du        
   5545 ****       223.2500  26.2500  23.7500 Du        
   5546 ****       223.2500  26.2500  24.0000 Du        
   5547 ****       223.2500  26.2500  24.2500 Du        
   5548 ****       223.2500  26.2500  24.5000 Du        
   5549 ****       223.2500  26.2500  24.7500 Du        
   5550 ****       223.2500  26.2500  25.0000 Du        
   5551 ****       223.2500  26.2500  25.2500 Du        
   5552 ****       223.2500  26.2500  25.5000 Du        
   5553 ****       223.2500  26.2500  25.7500 Du        
   5554 ****       223.2500  26.5000  23.7500 Du        
   5555 ****       223.2500  26.5000  24.0000 Du        
   5556 ****       223.2500  26.5000  24.2500 Du        
   5557 ****       223.2500  26.5000  24.5000 Du        
   5558 ****       223.2500  26.5000  24.7500 Du        
   5559 ****       223.2500  26.5000  25.0000 Du        
   5560 ****       223.2500  26.5000  25.2500 Du        
   5561 ****       223.2500  26.5000  25.5000 Du        
   5562 ****       223.2500  26.5000  25.7500 Du        
   5563 ****       223.2500  26.7500  23.7500 Du        
   5564 ****       223.2500  26.7500  24.0000 Du        
   5565 ****       223.2500  26.7500  24.2500 Du        
   5566 ****       223.2500  26.7500  24.5000 Du        
   5567 ****       223.2500  26.7500  24.7500 Du        
   5568 ****       223.2500  26.7500  25.0000 Du        
   5569 ****       223.2500  26.7500  25.2500 Du        
   5570 ****       223.2500  26.7500  25.5000 Du        
   5571 ****       223.2500  26.7500  25.7500 Du        
   5572 ****       223.2500  27.0000  24.0000 Du        
   5573 ****       223.2500  27.0000  24.2500 Du        
   5574 ****       223.2500  27.0000  24.5000 Du        
   5575 ****       223.2500  27.0000  24.7500 Du        
   5576 ****       223.2500  27.0000  25.0000 Du        
   5577 ****       223.2500  27.0000  25.2500 Du        
   5578 ****       223.2500  27.0000  25.5000 Du        
   5579 ****       223.2500  27.0000  25.7500 Du        
   5580 ****       223.2500  27.2500  24.7500 Du        
   5581 ****       223.2500  27.2500  25.0000 Du        
   5582 ****       223.2500  27.2500  25.2500 Du        
   5583 ****       223.2500  27.2500  25.5000 Du        
   5584 ****       223.2500  27.2500  25.7500 Du        
   5585 ****       223.2500  27.5000  25.2500 Du        
   5586 ****       223.2500  27.5000  25.5000 Du        
   5587 ****       223.2500  27.5000  25.7500 Du        
   5588 ****       223.2500  27.7500  25.5000 Du        
   5589 ****       223.2500  27.7500  25.7500 Du        
   5590 ****       223.2500  28.0000  25.7500 Du        
   5591 ****       223.2500  28.2500  25.7500 Du        
   5592 ****       223.5000  14.0000  17.2500 Du        
   5593 ****       223.5000  14.0000  17.5000 Du        
   5594 ****       223.5000  14.0000  17.7500 Du        
   5595 ****       223.5000  14.0000  18.0000 Du        
   5596 ****       223.5000  14.0000  18.2500 Du        
   5597 ****       223.5000  14.2500  17.2500 Du        
   5598 ****       223.5000  14.2500  17.5000 Du        
   5599 ****       223.5000  14.2500  17.7500 Du        
   5600 ****       223.5000  14.2500  18.0000 Du        
   5601 ****       223.5000  14.2500  18.2500 Du        
   5602 ****       223.5000  14.2500  18.5000 Du        
   5603 ****       223.5000  14.5000  17.5000 Du        
   5604 ****       223.5000  14.5000  17.7500 Du        
   5605 ****       223.5000  14.5000  18.0000 Du        
   5606 ****       223.5000  14.5000  18.2500 Du        
   5607 ****       223.5000  14.5000  18.5000 Du        
   5608 ****       223.5000  14.7500  17.5000 Du        
   5609 ****       223.5000  14.7500  17.7500 Du        
   5610 ****       223.5000  14.7500  18.0000 Du        
   5611 ****       223.5000  14.7500  18.2500 Du        
   5612 ****       223.5000  14.7500  18.5000 Du        
   5613 ****       223.5000  15.0000  17.5000 Du        
   5614 ****       223.5000  15.0000  17.7500 Du        
   5615 ****       223.5000  15.0000  18.0000 Du        
   5616 ****       223.5000  15.0000  18.2500 Du        
   5617 ****       223.5000  15.2500  17.5000 Du        
   5618 ****       223.5000  15.2500  17.7500 Du        
   5619 ****       223.5000  15.2500  18.0000 Du        
   5620 ****       223.5000  15.2500  18.2500 Du        
   5621 ****       223.5000  15.5000  17.5000 Du        
   5622 ****       223.5000  15.5000  17.7500 Du        
   5623 ****       223.5000  15.5000  18.0000 Du        
   5624 ****       223.5000  15.7500  17.5000 Du        
   5625 ****       223.5000  15.7500  17.7500 Du        
   5626 ****       223.5000  15.7500  18.0000 Du        
   5627 ****       223.5000  16.0000  17.5000 Du        
   5628 ****       223.5000  16.0000  17.7500 Du        
   5629 ****       223.5000  16.0000  18.0000 Du        
   5630 ****       223.5000  16.2500  17.7500 Du        
   5631 ****       223.5000  16.2500  18.0000 Du        
   5632 ****       223.5000  16.5000  18.0000 Du        
   5633 ****       223.5000  16.7500  17.7500 Du        
   5634 ****       223.5000  16.7500  18.0000 Du        
   5635 ****       223.5000  16.7500  18.2500 Du        
   5636 ****       223.5000  17.0000  17.7500 Du        
   5637 ****       223.5000  17.0000  18.0000 Du        
   5638 ****       223.5000  17.0000  18.2500 Du        
   5639 ****       223.5000  17.2500  17.5000 Du        
   5640 ****       223.5000  17.2500  17.7500 Du        
   5641 ****       223.5000  17.2500  18.0000 Du        
   5642 ****       223.5000  17.2500  18.2500 Du        
   5643 ****       223.5000  17.5000  17.5000 Du        
   5644 ****       223.5000  17.5000  17.7500 Du        
   5645 ****       223.5000  17.5000  18.0000 Du        
   5646 ****       223.5000  17.5000  18.2500 Du        
   5647 ****       223.5000  17.7500  17.5000 Du        
   5648 ****       223.5000  17.7500  17.7500 Du        
   5649 ****       223.5000  17.7500  18.0000 Du        
   5650 ****       223.5000  17.7500  18.2500 Du        
   5651 ****       223.5000  19.5000  13.2500 Du        
   5652 ****       223.5000  19.7500  13.2500 Du        
   5653 ****       223.5000  19.7500  13.5000 Du        
   5654 ****       223.5000  19.7500  13.7500 Du        
   5655 ****       223.5000  19.7500  14.0000 Du        
   5656 ****       223.5000  19.7500  14.2500 Du        
   5657 ****       223.5000  19.7500  14.5000 Du        
   5658 ****       223.5000  19.7500  14.7500 Du        
   5659 ****       223.5000  19.7500  15.0000 Du        
   5660 ****       223.5000  19.7500  15.2500 Du        
   5661 ****       223.5000  20.0000  13.0000 Du        
   5662 ****       223.5000  20.0000  13.2500 Du        
   5663 ****       223.5000  20.0000  13.5000 Du        
   5664 ****       223.5000  20.0000  13.7500 Du        
   5665 ****       223.5000  20.0000  14.0000 Du        
   5666 ****       223.5000  20.0000  14.2500 Du        
   5667 ****       223.5000  20.0000  14.5000 Du        
   5668 ****       223.5000  20.0000  14.7500 Du        
   5669 ****       223.5000  20.0000  15.0000 Du        
   5670 ****       223.5000  20.0000  15.2500 Du        
   5671 ****       223.5000  20.2500  13.0000 Du        
   5672 ****       223.5000  20.2500  13.2500 Du        
   5673 ****       223.5000  20.2500  13.5000 Du        
   5674 ****       223.5000  20.2500  13.7500 Du        
   5675 ****       223.5000  20.2500  14.0000 Du        
   5676 ****       223.5000  20.2500  14.2500 Du        
   5677 ****       223.5000  20.2500  14.5000 Du        
   5678 ****       223.5000  20.2500  14.7500 Du        
   5679 ****       223.5000  20.2500  15.0000 Du        
   5680 ****       223.5000  20.2500  15.2500 Du        
   5681 ****       223.5000  20.5000  13.0000 Du        
   5682 ****       223.5000  20.5000  13.2500 Du        
   5683 ****       223.5000  20.5000  13.5000 Du        
   5684 ****       223.5000  20.5000  13.7500 Du        
   5685 ****       223.5000  20.5000  14.0000 Du        
   5686 ****       223.5000  20.5000  14.2500 Du        
   5687 ****       223.5000  20.5000  14.5000 Du        
   5688 ****       223.5000  20.5000  14.7500 Du        
   5689 ****       223.5000  20.5000  15.0000 Du        
   5690 ****       223.5000  20.5000  15.2500 Du        
   5691 ****       223.5000  20.5000  15.5000 Du        
   5692 ****       223.5000  20.7500  12.7500 Du        
   5693 ****       223.5000  20.7500  13.0000 Du        
   5694 ****       223.5000  20.7500  13.2500 Du        
   5695 ****       223.5000  20.7500  13.5000 Du        
   5696 ****       223.5000  20.7500  13.7500 Du        
   5697 ****       223.5000  20.7500  14.0000 Du        
   5698 ****       223.5000  20.7500  14.2500 Du        
   5699 ****       223.5000  20.7500  14.5000 Du        
   5700 ****       223.5000  20.7500  14.7500 Du        
   5701 ****       223.5000  20.7500  15.0000 Du        
   5702 ****       223.5000  20.7500  15.2500 Du        
   5703 ****       223.5000  20.7500  15.5000 Du        
   5704 ****       223.5000  21.0000  12.7500 Du        
   5705 ****       223.5000  21.0000  13.0000 Du        
   5706 ****       223.5000  21.0000  13.2500 Du        
   5707 ****       223.5000  21.0000  13.5000 Du        
   5708 ****       223.5000  21.0000  13.7500 Du        
   5709 ****       223.5000  21.0000  14.0000 Du        
   5710 ****       223.5000  21.0000  14.2500 Du        
   5711 ****       223.5000  21.0000  14.5000 Du        
   5712 ****       223.5000  21.0000  14.7500 Du        
   5713 ****       223.5000  21.0000  15.0000 Du        
   5714 ****       223.5000  21.0000  15.2500 Du        
   5715 ****       223.5000  21.0000  15.5000 Du        
   5716 ****       223.5000  21.2500  13.0000 Du        
   5717 ****       223.5000  21.2500  13.2500 Du        
   5718 ****       223.5000  21.2500  13.5000 Du        
   5719 ****       223.5000  21.2500  13.7500 Du        
   5720 ****       223.5000  21.2500  14.0000 Du        
   5721 ****       223.5000  21.2500  14.2500 Du        
   5722 ****       223.5000  21.2500  14.5000 Du        
   5723 ****       223.5000  21.2500  14.7500 Du        
   5724 ****       223.5000  21.2500  15.0000 Du        
   5725 ****       223.5000  21.2500  15.2500 Du        
   5726 ****       223.5000  21.2500  25.7500 Du        
   5727 ****       223.5000  21.5000  15.0000 Du        
   5728 ****       223.5000  21.5000  15.2500 Du        
   5729 ****       223.5000  21.5000  25.5000 Du        
   5730 ****       223.5000  21.5000  25.7500 Du        
   5731 ****       223.5000  21.7500  25.5000 Du        
   5732 ****       223.5000  21.7500  25.7500 Du        
   5733 ****       223.5000  22.0000  25.0000 Du        
   5734 ****       223.5000  22.0000  25.2500 Du        
   5735 ****       223.5000  22.0000  25.5000 Du        
   5736 ****       223.5000  22.0000  25.7500 Du        
   5737 ****       223.5000  22.2500  25.0000 Du        
   5738 ****       223.5000  22.2500  25.2500 Du        
   5739 ****       223.5000  22.2500  25.5000 Du        
   5740 ****       223.5000  22.2500  25.7500 Du        
   5741 ****       223.5000  22.5000  24.5000 Du        
   5742 ****       223.5000  22.5000  24.7500 Du        
   5743 ****       223.5000  22.5000  25.0000 Du        
   5744 ****       223.5000  22.5000  25.2500 Du        
   5745 ****       223.5000  22.5000  25.5000 Du        
   5746 ****       223.5000  22.5000  25.7500 Du        
   5747 ****       223.5000  22.7500  24.0000 Du        
   5748 ****       223.5000  22.7500  24.2500 Du        
   5749 ****       223.5000  22.7500  24.5000 Du        
   5750 ****       223.5000  22.7500  24.7500 Du        
   5751 ****       223.5000  22.7500  25.0000 Du        
   5752 ****       223.5000  22.7500  25.2500 Du        
   5753 ****       223.5000  22.7500  25.5000 Du        
   5754 ****       223.5000  22.7500  25.7500 Du        
   5755 ****       223.5000  23.0000  23.0000 Du        
   5756 ****       223.5000  23.0000  23.2500 Du        
   5757 ****       223.5000  23.0000  23.5000 Du        
   5758 ****       223.5000  23.0000  23.7500 Du        
   5759 ****       223.5000  23.0000  24.0000 Du        
   5760 ****       223.5000  23.0000  24.2500 Du        
   5761 ****       223.5000  23.0000  24.5000 Du        
   5762 ****       223.5000  23.0000  24.7500 Du        
   5763 ****       223.5000  23.0000  25.0000 Du        
   5764 ****       223.5000  23.0000  25.2500 Du        
   5765 ****       223.5000  23.0000  25.5000 Du        
   5766 ****       223.5000  23.0000  25.7500 Du        
   5767 ****       223.5000  23.2500  22.7500 Du        
   5768 ****       223.5000  23.2500  23.0000 Du        
   5769 ****       223.5000  23.2500  23.2500 Du        
   5770 ****       223.5000  23.2500  23.5000 Du        
   5771 ****       223.5000  23.2500  23.7500 Du        
   5772 ****       223.5000  23.2500  24.0000 Du        
   5773 ****       223.5000  23.2500  24.2500 Du        
   5774 ****       223.5000  23.2500  24.5000 Du        
   5775 ****       223.5000  23.2500  24.7500 Du        
   5776 ****       223.5000  23.2500  25.0000 Du        
   5777 ****       223.5000  23.2500  25.2500 Du        
   5778 ****       223.5000  23.2500  25.5000 Du        
   5779 ****       223.5000  23.2500  25.7500 Du        
   5780 ****       223.5000  23.5000  22.7500 Du        
   5781 ****       223.5000  23.5000  23.0000 Du        
   5782 ****       223.5000  23.5000  23.2500 Du        
   5783 ****       223.5000  23.5000  23.5000 Du        
   5784 ****       223.5000  23.5000  23.7500 Du        
   5785 ****       223.5000  23.5000  24.0000 Du        
   5786 ****       223.5000  23.5000  24.2500 Du        
   5787 ****       223.5000  23.5000  24.5000 Du        
   5788 ****       223.5000  23.5000  24.7500 Du        
   5789 ****       223.5000  23.5000  25.0000 Du        
   5790 ****       223.5000  23.5000  25.2500 Du        
   5791 ****       223.5000  23.5000  25.5000 Du        
   5792 ****       223.5000  23.5000  25.7500 Du        
   5793 ****       223.5000  23.7500  22.7500 Du        
   5794 ****       223.5000  23.7500  23.0000 Du        
   5795 ****       223.5000  23.7500  23.2500 Du        
   5796 ****       223.5000  23.7500  23.5000 Du        
   5797 ****       223.5000  23.7500  23.7500 Du        
   5798 ****       223.5000  23.7500  24.0000 Du        
   5799 ****       223.5000  23.7500  24.2500 Du        
   5800 ****       223.5000  23.7500  24.5000 Du        
   5801 ****       223.5000  23.7500  24.7500 Du        
   5802 ****       223.5000  23.7500  25.0000 Du        
   5803 ****       223.5000  23.7500  25.2500 Du        
   5804 ****       223.5000  23.7500  25.5000 Du        
   5805 ****       223.5000  23.7500  25.7500 Du        
   5806 ****       223.5000  24.0000  22.7500 Du        
   5807 ****       223.5000  24.0000  23.0000 Du        
   5808 ****       223.5000  24.0000  23.2500 Du        
   5809 ****       223.5000  24.0000  23.5000 Du        
   5810 ****       223.5000  24.0000  23.7500 Du        
   5811 ****       223.5000  24.0000  24.0000 Du        
   5812 ****       223.5000  24.0000  24.2500 Du        
   5813 ****       223.5000  24.0000  24.5000 Du        
   5814 ****       223.5000  24.0000  24.7500 Du        
   5815 ****       223.5000  24.0000  25.0000 Du        
   5816 ****       223.5000  24.0000  25.2500 Du        
   5817 ****       223.5000  24.0000  25.5000 Du        
   5818 ****       223.5000  24.0000  25.7500 Du        
   5819 ****       223.5000  24.2500  22.7500 Du        
   5820 ****       223.5000  24.2500  23.0000 Du        
   5821 ****       223.5000  24.2500  23.2500 Du        
   5822 ****       223.5000  24.2500  23.5000 Du        
   5823 ****       223.5000  24.2500  23.7500 Du        
   5824 ****       223.5000  24.2500  24.0000 Du        
   5825 ****       223.5000  24.2500  24.2500 Du        
   5826 ****       223.5000  24.2500  24.5000 Du        
   5827 ****       223.5000  24.2500  24.7500 Du        
   5828 ****       223.5000  24.2500  25.0000 Du        
   5829 ****       223.5000  24.2500  25.2500 Du        
   5830 ****       223.5000  24.2500  25.5000 Du        
   5831 ****       223.5000  24.2500  25.7500 Du        
   5832 ****       223.5000  24.5000  22.7500 Du        
   5833 ****       223.5000  24.5000  23.0000 Du        
   5834 ****       223.5000  24.5000  23.2500 Du        
   5835 ****       223.5000  24.5000  23.5000 Du        
   5836 ****       223.5000  24.5000  23.7500 Du        
   5837 ****       223.5000  24.5000  24.0000 Du        
   5838 ****       223.5000  24.5000  24.2500 Du        
   5839 ****       223.5000  24.5000  24.5000 Du        
   5840 ****       223.5000  24.5000  24.7500 Du        
   5841 ****       223.5000  24.5000  25.0000 Du        
   5842 ****       223.5000  24.5000  25.2500 Du        
   5843 ****       223.5000  24.5000  25.5000 Du        
   5844 ****       223.5000  24.5000  25.7500 Du        
   5845 ****       223.5000  24.7500  22.7500 Du        
   5846 ****       223.5000  24.7500  23.0000 Du        
   5847 ****       223.5000  24.7500  23.2500 Du        
   5848 ****       223.5000  24.7500  23.5000 Du        
   5849 ****       223.5000  24.7500  23.7500 Du        
   5850 ****       223.5000  24.7500  24.0000 Du        
   5851 ****       223.5000  24.7500  24.2500 Du        
   5852 ****       223.5000  24.7500  24.5000 Du        
   5853 ****       223.5000  24.7500  24.7500 Du        
   5854 ****       223.5000  24.7500  25.0000 Du        
   5855 ****       223.5000  24.7500  25.2500 Du        
   5856 ****       223.5000  24.7500  25.5000 Du        
   5857 ****       223.5000  24.7500  25.7500 Du        
   5858 ****       223.5000  25.0000  22.7500 Du        
   5859 ****       223.5000  25.0000  23.0000 Du        
   5860 ****       223.5000  25.0000  23.2500 Du        
   5861 ****       223.5000  25.0000  23.5000 Du        
   5862 ****       223.5000  25.0000  23.7500 Du        
   5863 ****       223.5000  25.0000  24.0000 Du        
   5864 ****       223.5000  25.0000  24.2500 Du        
   5865 ****       223.5000  25.0000  24.5000 Du        
   5866 ****       223.5000  25.0000  24.7500 Du        
   5867 ****       223.5000  25.0000  25.0000 Du        
   5868 ****       223.5000  25.0000  25.2500 Du        
   5869 ****       223.5000  25.0000  25.5000 Du        
   5870 ****       223.5000  25.0000  25.7500 Du        
   5871 ****       223.5000  25.2500  22.7500 Du        
   5872 ****       223.5000  25.2500  23.0000 Du        
   5873 ****       223.5000  25.2500  23.2500 Du        
   5874 ****       223.5000  25.2500  23.5000 Du        
   5875 ****       223.5000  25.2500  23.7500 Du        
   5876 ****       223.5000  25.2500  24.0000 Du        
   5877 ****       223.5000  25.2500  24.2500 Du        
   5878 ****       223.5000  25.2500  24.5000 Du        
   5879 ****       223.5000  25.2500  24.7500 Du        
   5880 ****       223.5000  25.2500  25.0000 Du        
   5881 ****       223.5000  25.2500  25.2500 Du        
   5882 ****       223.5000  25.2500  25.5000 Du        
   5883 ****       223.5000  25.2500  25.7500 Du        
   5884 ****       223.5000  25.5000  22.7500 Du        
   5885 ****       223.5000  25.5000  23.0000 Du        
   5886 ****       223.5000  25.5000  23.2500 Du        
   5887 ****       223.5000  25.5000  23.5000 Du        
   5888 ****       223.5000  25.5000  23.7500 Du        
   5889 ****       223.5000  25.5000  24.0000 Du        
   5890 ****       223.5000  25.5000  24.2500 Du        
   5891 ****       223.5000  25.5000  24.5000 Du        
   5892 ****       223.5000  25.5000  24.7500 Du        
   5893 ****       223.5000  25.5000  25.0000 Du        
   5894 ****       223.5000  25.5000  25.2500 Du        
   5895 ****       223.5000  25.5000  25.5000 Du        
   5896 ****       223.5000  25.5000  25.7500 Du        
   5897 ****       223.5000  25.7500  22.7500 Du        
   5898 ****       223.5000  25.7500  23.0000 Du        
   5899 ****       223.5000  25.7500  23.2500 Du        
   5900 ****       223.5000  25.7500  23.5000 Du        
   5901 ****       223.5000  25.7500  23.7500 Du        
   5902 ****       223.5000  25.7500  24.0000 Du        
   5903 ****       223.5000  25.7500  24.2500 Du        
   5904 ****       223.5000  25.7500  24.5000 Du        
   5905 ****       223.5000  25.7500  24.7500 Du        
   5906 ****       223.5000  25.7500  25.0000 Du        
   5907 ****       223.5000  25.7500  25.2500 Du        
   5908 ****       223.5000  25.7500  25.5000 Du        
   5909 ****       223.5000  25.7500  25.7500 Du        
   5910 ****       223.5000  26.0000  22.7500 Du        
   5911 ****       223.5000  26.0000  23.0000 Du        
   5912 ****       223.5000  26.0000  23.2500 Du        
   5913 ****       223.5000  26.0000  23.5000 Du        
   5914 ****       223.5000  26.0000  23.7500 Du        
   5915 ****       223.5000  26.0000  24.0000 Du        
   5916 ****       223.5000  26.0000  24.2500 Du        
   5917 ****       223.5000  26.0000  24.5000 Du        
   5918 ****       223.5000  26.0000  24.7500 Du        
   5919 ****       223.5000  26.0000  25.0000 Du        
   5920 ****       223.5000  26.0000  25.2500 Du        
   5921 ****       223.5000  26.0000  25.5000 Du        
   5922 ****       223.5000  26.0000  25.7500 Du        
   5923 ****       223.5000  26.2500  22.7500 Du        
   5924 ****       223.5000  26.2500  23.0000 Du        
   5925 ****       223.5000  26.2500  23.2500 Du        
   5926 ****       223.5000  26.2500  23.5000 Du        
   5927 ****       223.5000  26.2500  23.7500 Du        
   5928 ****       223.5000  26.2500  24.0000 Du        
   5929 ****       223.5000  26.2500  24.2500 Du        
   5930 ****       223.5000  26.2500  24.5000 Du        
   5931 ****       223.5000  26.2500  24.7500 Du        
   5932 ****       223.5000  26.2500  25.0000 Du        
   5933 ****       223.5000  26.2500  25.2500 Du        
   5934 ****       223.5000  26.2500  25.5000 Du        
   5935 ****       223.5000  26.2500  25.7500 Du        
   5936 ****       223.5000  26.5000  23.0000 Du        
   5937 ****       223.5000  26.5000  23.2500 Du        
   5938 ****       223.5000  26.5000  23.5000 Du        
   5939 ****       223.5000  26.5000  23.7500 Du        
   5940 ****       223.5000  26.5000  24.0000 Du        
   5941 ****       223.5000  26.5000  24.2500 Du        
   5942 ****       223.5000  26.5000  24.5000 Du        
   5943 ****       223.5000  26.5000  24.7500 Du        
   5944 ****       223.5000  26.5000  25.0000 Du        
   5945 ****       223.5000  26.5000  25.2500 Du        
   5946 ****       223.5000  26.5000  25.5000 Du        
   5947 ****       223.5000  26.5000  25.7500 Du        
   5948 ****       223.5000  26.7500  23.2500 Du        
   5949 ****       223.5000  26.7500  23.5000 Du        
   5950 ****       223.5000  26.7500  23.7500 Du        
   5951 ****       223.5000  26.7500  24.0000 Du        
   5952 ****       223.5000  26.7500  24.2500 Du        
   5953 ****       223.5000  26.7500  24.5000 Du        
   5954 ****       223.5000  26.7500  24.7500 Du        
   5955 ****       223.5000  26.7500  25.0000 Du        
   5956 ****       223.5000  26.7500  25.2500 Du        
   5957 ****       223.5000  26.7500  25.5000 Du        
   5958 ****       223.5000  26.7500  25.7500 Du        
   5959 ****       223.5000  27.0000  25.2500 Du        
   5960 ****       223.5000  27.0000  25.5000 Du        
   5961 ****       223.5000  27.0000  25.7500 Du        
   5962 ****       223.5000  27.2500  25.5000 Du        
   5963 ****       223.5000  27.2500  25.7500 Du        
   5964 ****       223.5000  27.5000  25.7500 Du        
   5965 ****       223.7500   6.7500   9.2500 Du        
   5966 ****       223.7500   7.0000  10.0000 Du        
   5967 ****       223.7500   7.2500  10.2500 Du        
   5968 ****       223.7500   8.7500  14.7500 Du        
   5969 ****       223.7500  14.0000  17.2500 Du        
   5970 ****       223.7500  14.0000  17.5000 Du        
   5971 ****       223.7500  14.0000  17.7500 Du        
   5972 ****       223.7500  14.0000  18.0000 Du        
   5973 ****       223.7500  14.0000  18.2500 Du        
   5974 ****       223.7500  14.2500  17.2500 Du        
   5975 ****       223.7500  14.2500  17.5000 Du        
   5976 ****       223.7500  14.2500  17.7500 Du        
   5977 ****       223.7500  14.2500  18.0000 Du        
   5978 ****       223.7500  14.2500  18.2500 Du        
   5979 ****       223.7500  14.2500  18.5000 Du        
   5980 ****       223.7500  14.5000  17.5000 Du        
   5981 ****       223.7500  14.5000  17.7500 Du        
   5982 ****       223.7500  14.5000  18.0000 Du        
   5983 ****       223.7500  14.5000  18.2500 Du        
   5984 ****       223.7500  14.5000  18.5000 Du        
   5985 ****       223.7500  14.7500  17.5000 Du        
   5986 ****       223.7500  14.7500  17.7500 Du        
   5987 ****       223.7500  14.7500  18.0000 Du        
   5988 ****       223.7500  14.7500  18.2500 Du        
   5989 ****       223.7500  14.7500  18.5000 Du        
   5990 ****       223.7500  15.0000  17.5000 Du        
   5991 ****       223.7500  15.0000  17.7500 Du        
   5992 ****       223.7500  15.0000  18.0000 Du        
   5993 ****       223.7500  15.0000  18.2500 Du        
   5994 ****       223.7500  15.0000  18.5000 Du        
   5995 ****       223.7500  15.2500  17.5000 Du        
   5996 ****       223.7500  15.2500  17.7500 Du        
   5997 ****       223.7500  15.2500  18.0000 Du        
   5998 ****       223.7500  15.2500  18.2500 Du        
   5999 ****       223.7500  15.2500  18.5000 Du        
   6000 ****       223.7500  15.5000  17.5000 Du        
   6001 ****       223.7500  15.5000  17.7500 Du        
   6002 ****       223.7500  15.5000  18.0000 Du        
   6003 ****       223.7500  15.5000  18.2500 Du        
   6004 ****       223.7500  15.5000  18.5000 Du        
   6005 ****       223.7500  15.7500  17.5000 Du        
   6006 ****       223.7500  15.7500  17.7500 Du        
   6007 ****       223.7500  15.7500  18.0000 Du        
   6008 ****       223.7500  15.7500  18.2500 Du        
   6009 ****       223.7500  15.7500  18.5000 Du        
   6010 ****       223.7500  16.0000  17.5000 Du        
   6011 ****       223.7500  16.0000  17.7500 Du        
   6012 ****       223.7500  16.0000  18.0000 Du        
   6013 ****       223.7500  16.0000  18.2500 Du        
   6014 ****       223.7500  16.0000  18.5000 Du        
   6015 ****       223.7500  16.2500  17.5000 Du        
   6016 ****       223.7500  16.2500  17.7500 Du        
   6017 ****       223.7500  16.2500  18.0000 Du        
   6018 ****       223.7500  16.2500  18.2500 Du        
   6019 ****       223.7500  16.2500  18.5000 Du        
   6020 ****       223.7500  16.5000  17.7500 Du        
   6021 ****       223.7500  16.5000  18.0000 Du        
   6022 ****       223.7500  16.5000  18.2500 Du        
   6023 ****       223.7500  16.5000  18.5000 Du        
   6024 ****       223.7500  16.7500  17.7500 Du        
   6025 ****       223.7500  16.7500  18.0000 Du        
   6026 ****       223.7500  16.7500  18.2500 Du        
   6027 ****       223.7500  16.7500  18.5000 Du        
   6028 ****       223.7500  16.7500  18.7500 Du        
   6029 ****       223.7500  17.0000  17.5000 Du        
   6030 ****       223.7500  17.0000  17.7500 Du        
   6031 ****       223.7500  17.0000  18.0000 Du        
   6032 ****       223.7500  17.0000  18.2500 Du        
   6033 ****       223.7500  17.0000  18.5000 Du        
   6034 ****       223.7500  17.0000  18.7500 Du        
   6035 ****       223.7500  17.2500  17.5000 Du        
   6036 ****       223.7500  17.2500  17.7500 Du        
   6037 ****       223.7500  17.2500  18.0000 Du        
   6038 ****       223.7500  17.2500  18.2500 Du        
   6039 ****       223.7500  17.2500  18.5000 Du        
   6040 ****       223.7500  17.2500  18.7500 Du        
   6041 ****       223.7500  17.5000  17.5000 Du        
   6042 ****       223.7500  17.5000  17.7500 Du        
   6043 ****       223.7500  17.5000  18.0000 Du        
   6044 ****       223.7500  17.5000  18.2500 Du        
   6045 ****       223.7500  17.5000  18.5000 Du        
   6046 ****       223.7500  17.5000  18.7500 Du        
   6047 ****       223.7500  17.7500  17.2500 Du        
   6048 ****       223.7500  17.7500  17.5000 Du        
   6049 ****       223.7500  17.7500  17.7500 Du        
   6050 ****       223.7500  17.7500  18.0000 Du        
   6051 ****       223.7500  17.7500  18.2500 Du        
   6052 ****       223.7500  17.7500  18.5000 Du        
   6053 ****       223.7500  18.0000  17.5000 Du        
   6054 ****       223.7500  18.0000  17.7500 Du        
   6055 ****       223.7500  18.0000  18.0000 Du        
   6056 ****       223.7500  18.0000  18.2500 Du        
   6057 ****       223.7500  19.2500  13.2500 Du        
   6058 ****       223.7500  19.5000  13.0000 Du        
   6059 ****       223.7500  19.5000  13.2500 Du        
   6060 ****       223.7500  19.5000  13.5000 Du        
   6061 ****       223.7500  19.5000  13.7500 Du        
   6062 ****       223.7500  19.5000  14.0000 Du        
   6063 ****       223.7500  19.5000  14.2500 Du        
   6064 ****       223.7500  19.5000  15.0000 Du        
   6065 ****       223.7500  19.7500  13.0000 Du        
   6066 ****       223.7500  19.7500  13.2500 Du        
   6067 ****       223.7500  19.7500  13.5000 Du        
   6068 ****       223.7500  19.7500  13.7500 Du        
   6069 ****       223.7500  19.7500  14.0000 Du        
   6070 ****       223.7500  19.7500  14.2500 Du        
   6071 ****       223.7500  19.7500  14.5000 Du        
   6072 ****       223.7500  19.7500  14.7500 Du        
   6073 ****       223.7500  19.7500  15.0000 Du        
   6074 ****       223.7500  20.0000  13.0000 Du        
   6075 ****       223.7500  20.0000  13.2500 Du        
   6076 ****       223.7500  20.0000  13.5000 Du        
   6077 ****       223.7500  20.0000  13.7500 Du        
   6078 ****       223.7500  20.0000  14.0000 Du        
   6079 ****       223.7500  20.0000  14.2500 Du        
   6080 ****       223.7500  20.0000  14.5000 Du        
   6081 ****       223.7500  20.0000  14.7500 Du        
   6082 ****       223.7500  20.0000  15.0000 Du        
   6083 ****       223.7500  20.0000  15.2500 Du        
   6084 ****       223.7500  20.2500  13.0000 Du        
   6085 ****       223.7500  20.2500  13.2500 Du        
   6086 ****       223.7500  20.2500  13.5000 Du        
   6087 ****       223.7500  20.2500  13.7500 Du        
   6088 ****       223.7500  20.2500  14.0000 Du        
   6089 ****       223.7500  20.2500  14.2500 Du        
   6090 ****       223.7500  20.2500  14.5000 Du        
   6091 ****       223.7500  20.2500  14.7500 Du        
   6092 ****       223.7500  20.2500  15.0000 Du        
   6093 ****       223.7500  20.2500  15.2500 Du        
   6094 ****       223.7500  20.5000  13.0000 Du        
   6095 ****       223.7500  20.5000  13.2500 Du        
   6096 ****       223.7500  20.5000  13.5000 Du        
   6097 ****       223.7500  20.5000  13.7500 Du        
   6098 ****       223.7500  20.5000  14.0000 Du        
   6099 ****       223.7500  20.5000  14.2500 Du        
   6100 ****       223.7500  20.5000  14.5000 Du        
   6101 ****       223.7500  20.5000  14.7500 Du        
   6102 ****       223.7500  20.5000  15.0000 Du        
   6103 ****       223.7500  20.5000  15.2500 Du        
   6104 ****       223.7500  20.7500  12.7500 Du        
   6105 ****       223.7500  20.7500  13.0000 Du        
   6106 ****       223.7500  20.7500  13.2500 Du        
   6107 ****       223.7500  20.7500  13.5000 Du        
   6108 ****       223.7500  20.7500  13.7500 Du        
   6109 ****       223.7500  20.7500  14.0000 Du        
   6110 ****       223.7500  20.7500  14.2500 Du        
   6111 ****       223.7500  20.7500  14.5000 Du        
   6112 ****       223.7500  20.7500  14.7500 Du        
   6113 ****       223.7500  20.7500  15.0000 Du        
   6114 ****       223.7500  20.7500  15.2500 Du        
   6115 ****       223.7500  21.0000  12.7500 Du        
   6116 ****       223.7500  21.0000  13.0000 Du        
   6117 ****       223.7500  21.0000  13.2500 Du        
   6118 ****       223.7500  21.0000  13.5000 Du        
   6119 ****       223.7500  21.0000  13.7500 Du        
   6120 ****       223.7500  21.0000  14.0000 Du        
   6121 ****       223.7500  21.0000  14.2500 Du        
   6122 ****       223.7500  21.0000  14.5000 Du        
   6123 ****       223.7500  21.0000  14.7500 Du        
   6124 ****       223.7500  21.0000  15.0000 Du        
   6125 ****       223.7500  21.0000  15.2500 Du        
   6126 ****       223.7500  21.2500  13.0000 Du        
   6127 ****       223.7500  21.2500  13.2500 Du        
   6128 ****       223.7500  21.2500  13.5000 Du        
   6129 ****       223.7500  21.2500  13.7500 Du        
   6130 ****       223.7500  21.2500  14.0000 Du        
   6131 ****       223.7500  21.2500  14.2500 Du        
   6132 ****       223.7500  21.2500  14.5000 Du        
   6133 ****       223.7500  21.2500  14.7500 Du        
   6134 ****       223.7500  21.2500  15.0000 Du        
   6135 ****       223.7500  21.2500  15.2500 Du        
   6136 ****       223.7500  21.5000  14.7500 Du        
   6137 ****       223.7500  21.5000  15.0000 Du        
   6138 ****       223.7500  21.5000  15.2500 Du        
   6139 ****       223.7500  21.5000  25.7500 Du        
   6140 ****       223.7500  21.7500  25.5000 Du        
   6141 ****       223.7500  21.7500  25.7500 Du        
   6142 ****       223.7500  22.0000  25.2500 Du        
   6143 ****       223.7500  22.0000  25.5000 Du        
   6144 ****       223.7500  22.0000  25.7500 Du        
   6145 ****       223.7500  22.2500  25.2500 Du        
   6146 ****       223.7500  22.2500  25.5000 Du        
   6147 ****       223.7500  22.2500  25.7500 Du        
   6148 ****       223.7500  22.5000  25.0000 Du        
   6149 ****       223.7500  22.5000  25.2500 Du        
   6150 ****       223.7500  22.5000  25.5000 Du        
   6151 ****       223.7500  22.5000  25.7500 Du        
   6152 ****       223.7500  22.7500  24.7500 Du        
   6153 ****       223.7500  22.7500  25.0000 Du        
   6154 ****       223.7500  22.7500  25.2500 Du        
   6155 ****       223.7500  22.7500  25.5000 Du        
   6156 ****       223.7500  22.7500  25.7500 Du        
   6157 ****       223.7500  23.0000  24.2500 Du        
   6158 ****       223.7500  23.0000  24.5000 Du        
   6159 ****       223.7500  23.0000  24.7500 Du        
   6160 ****       223.7500  23.0000  25.0000 Du        
   6161 ****       223.7500  23.0000  25.2500 Du        
   6162 ****       223.7500  23.0000  25.5000 Du        
   6163 ****       223.7500  23.0000  25.7500 Du        
   6164 ****       223.7500  23.2500  22.7500 Du        
   6165 ****       223.7500  23.2500  23.0000 Du        
   6166 ****       223.7500  23.2500  23.2500 Du        
   6167 ****       223.7500  23.2500  23.5000 Du        
   6168 ****       223.7500  23.2500  23.7500 Du        
   6169 ****       223.7500  23.2500  24.0000 Du        
   6170 ****       223.7500  23.2500  24.2500 Du        
   6171 ****       223.7500  23.2500  24.5000 Du        
   6172 ****       223.7500  23.2500  24.7500 Du        
   6173 ****       223.7500  23.2500  25.0000 Du        
   6174 ****       223.7500  23.2500  25.2500 Du        
   6175 ****       223.7500  23.2500  25.5000 Du        
   6176 ****       223.7500  23.2500  25.7500 Du        
   6177 ****       223.7500  23.5000  22.7500 Du        
   6178 ****       223.7500  23.5000  23.0000 Du        
   6179 ****       223.7500  23.5000  23.2500 Du        
   6180 ****       223.7500  23.5000  23.5000 Du        
   6181 ****       223.7500  23.5000  23.7500 Du        
   6182 ****       223.7500  23.5000  24.0000 Du        
   6183 ****       223.7500  23.5000  24.2500 Du        
   6184 ****       223.7500  23.5000  24.5000 Du        
   6185 ****       223.7500  23.5000  24.7500 Du        
   6186 ****       223.7500  23.5000  25.0000 Du        
   6187 ****       223.7500  23.5000  25.2500 Du        
   6188 ****       223.7500  23.5000  25.5000 Du        
   6189 ****       223.7500  23.5000  25.7500 Du        
   6190 ****       223.7500  23.7500  22.5000 Du        
   6191 ****       223.7500  23.7500  22.7500 Du        
   6192 ****       223.7500  23.7500  23.0000 Du        
   6193 ****       223.7500  23.7500  23.2500 Du        
   6194 ****       223.7500  23.7500  23.5000 Du        
   6195 ****       223.7500  23.7500  23.7500 Du        
   6196 ****       223.7500  23.7500  24.0000 Du        
   6197 ****       223.7500  23.7500  24.2500 Du        
   6198 ****       223.7500  23.7500  24.5000 Du        
   6199 ****       223.7500  23.7500  24.7500 Du        
   6200 ****       223.7500  23.7500  25.0000 Du        
   6201 ****       223.7500  23.7500  25.2500 Du        
   6202 ****       223.7500  23.7500  25.5000 Du        
   6203 ****       223.7500  23.7500  25.7500 Du        
   6204 ****       223.7500  24.0000  22.5000 Du        
   6205 ****       223.7500  24.0000  22.7500 Du        
   6206 ****       223.7500  24.0000  23.0000 Du        
   6207 ****       223.7500  24.0000  23.2500 Du        
   6208 ****       223.7500  24.0000  23.5000 Du        
   6209 ****       223.7500  24.0000  23.7500 Du        
   6210 ****       223.7500  24.0000  24.0000 Du        
   6211 ****       223.7500  24.0000  24.2500 Du        
   6212 ****       223.7500  24.0000  24.5000 Du        
   6213 ****       223.7500  24.0000  24.7500 Du        
   6214 ****       223.7500  24.0000  25.0000 Du        
   6215 ****       223.7500  24.0000  25.2500 Du        
   6216 ****       223.7500  24.0000  25.5000 Du        
   6217 ****       223.7500  24.0000  25.7500 Du        
   6218 ****       223.7500  24.2500  22.5000 Du        
   6219 ****       223.7500  24.2500  22.7500 Du        
   6220 ****       223.7500  24.2500  23.0000 Du        
   6221 ****       223.7500  24.2500  23.2500 Du        
   6222 ****       223.7500  24.2500  23.5000 Du        
   6223 ****       223.7500  24.2500  23.7500 Du        
   6224 ****       223.7500  24.2500  24.0000 Du        
   6225 ****       223.7500  24.2500  24.2500 Du        
   6226 ****       223.7500  24.2500  24.5000 Du        
   6227 ****       223.7500  24.2500  24.7500 Du        
   6228 ****       223.7500  24.2500  25.0000 Du        
   6229 ****       223.7500  24.2500  25.2500 Du        
   6230 ****       223.7500  24.2500  25.5000 Du        
   6231 ****       223.7500  24.2500  25.7500 Du        
   6232 ****       223.7500  24.5000  22.5000 Du        
   6233 ****       223.7500  24.5000  22.7500 Du        
   6234 ****       223.7500  24.5000  23.0000 Du        
   6235 ****       223.7500  24.5000  23.2500 Du        
   6236 ****       223.7500  24.5000  23.5000 Du        
   6237 ****       223.7500  24.5000  23.7500 Du        
   6238 ****       223.7500  24.5000  24.0000 Du        
   6239 ****       223.7500  24.5000  24.2500 Du        
   6240 ****       223.7500  24.5000  24.5000 Du        
   6241 ****       223.7500  24.5000  24.7500 Du        
   6242 ****       223.7500  24.5000  25.0000 Du        
   6243 ****       223.7500  24.5000  25.2500 Du        
   6244 ****       223.7500  24.5000  25.5000 Du        
   6245 ****       223.7500  24.5000  25.7500 Du        
   6246 ****       223.7500  24.7500  22.5000 Du        
   6247 ****       223.7500  24.7500  22.7500 Du        
   6248 ****       223.7500  24.7500  23.0000 Du        
   6249 ****       223.7500  24.7500  23.2500 Du        
   6250 ****       223.7500  24.7500  23.5000 Du        
   6251 ****       223.7500  24.7500  23.7500 Du        
   6252 ****       223.7500  24.7500  24.0000 Du        
   6253 ****       223.7500  24.7500  24.2500 Du        
   6254 ****       223.7500  24.7500  24.5000 Du        
   6255 ****       223.7500  24.7500  24.7500 Du        
   6256 ****       223.7500  24.7500  25.0000 Du        
   6257 ****       223.7500  24.7500  25.2500 Du        
   6258 ****       223.7500  24.7500  25.5000 Du        
   6259 ****       223.7500  24.7500  25.7500 Du        
   6260 ****       223.7500  25.0000  22.5000 Du        
   6261 ****       223.7500  25.0000  22.7500 Du        
   6262 ****       223.7500  25.0000  23.0000 Du        
   6263 ****       223.7500  25.0000  23.2500 Du        
   6264 ****       223.7500  25.0000  23.5000 Du        
   6265 ****       223.7500  25.0000  23.7500 Du        
   6266 ****       223.7500  25.0000  24.0000 Du        
   6267 ****       223.7500  25.0000  24.2500 Du        
   6268 ****       223.7500  25.0000  24.5000 Du        
   6269 ****       223.7500  25.0000  24.7500 Du        
   6270 ****       223.7500  25.0000  25.0000 Du        
   6271 ****       223.7500  25.0000  25.2500 Du        
   6272 ****       223.7500  25.0000  25.5000 Du        
   6273 ****       223.7500  25.0000  25.7500 Du        
   6274 ****       223.7500  25.2500  22.5000 Du        
   6275 ****       223.7500  25.2500  22.7500 Du        
   6276 ****       223.7500  25.2500  23.0000 Du        
   6277 ****       223.7500  25.2500  23.2500 Du        
   6278 ****       223.7500  25.2500  23.5000 Du        
   6279 ****       223.7500  25.2500  23.7500 Du        
   6280 ****       223.7500  25.2500  24.0000 Du        
   6281 ****       223.7500  25.2500  24.2500 Du        
   6282 ****       223.7500  25.2500  24.5000 Du        
   6283 ****       223.7500  25.2500  24.7500 Du        
   6284 ****       223.7500  25.2500  25.0000 Du        
   6285 ****       223.7500  25.2500  25.2500 Du        
   6286 ****       223.7500  25.2500  25.5000 Du        
   6287 ****       223.7500  25.2500  25.7500 Du        
   6288 ****       223.7500  25.5000  22.5000 Du        
   6289 ****       223.7500  25.5000  22.7500 Du        
   6290 ****       223.7500  25.5000  23.0000 Du        
   6291 ****       223.7500  25.5000  23.2500 Du        
   6292 ****       223.7500  25.5000  23.5000 Du        
   6293 ****       223.7500  25.5000  23.7500 Du        
   6294 ****       223.7500  25.5000  24.0000 Du        
   6295 ****       223.7500  25.5000  24.2500 Du        
   6296 ****       223.7500  25.5000  24.5000 Du        
   6297 ****       223.7500  25.5000  24.7500 Du        
   6298 ****       223.7500  25.5000  25.0000 Du        
   6299 ****       223.7500  25.5000  25.2500 Du        
   6300 ****       223.7500  25.5000  25.5000 Du        
   6301 ****       223.7500  25.5000  25.7500 Du        
   6302 ****       223.7500  25.7500  22.5000 Du        
   6303 ****       223.7500  25.7500  22.7500 Du        
   6304 ****       223.7500  25.7500  23.0000 Du        
   6305 ****       223.7500  25.7500  23.2500 Du        
   6306 ****       223.7500  25.7500  23.5000 Du        
   6307 ****       223.7500  25.7500  23.7500 Du        
   6308 ****       223.7500  25.7500  24.0000 Du        
   6309 ****       223.7500  25.7500  24.2500 Du        
   6310 ****       223.7500  25.7500  24.5000 Du        
   6311 ****       223.7500  25.7500  24.7500 Du        
   6312 ****       223.7500  25.7500  25.0000 Du        
   6313 ****       223.7500  25.7500  25.2500 Du        
   6314 ****       223.7500  25.7500  25.5000 Du        
   6315 ****       223.7500  25.7500  25.7500 Du        
   6316 ****       223.7500  26.0000  22.5000 Du        
   6317 ****       223.7500  26.0000  22.7500 Du        
   6318 ****       223.7500  26.0000  23.0000 Du        
   6319 ****       223.7500  26.0000  23.2500 Du        
   6320 ****       223.7500  26.0000  23.5000 Du        
   6321 ****       223.7500  26.0000  23.7500 Du        
   6322 ****       223.7500  26.0000  24.0000 Du        
   6323 ****       223.7500  26.0000  24.2500 Du        
   6324 ****       223.7500  26.0000  24.5000 Du        
   6325 ****       223.7500  26.0000  24.7500 Du        
   6326 ****       223.7500  26.0000  25.0000 Du        
   6327 ****       223.7500  26.0000  25.2500 Du        
   6328 ****       223.7500  26.0000  25.5000 Du        
   6329 ****       223.7500  26.0000  25.7500 Du        
   6330 ****       223.7500  26.2500  22.7500 Du        
   6331 ****       223.7500  26.2500  23.0000 Du        
   6332 ****       223.7500  26.2500  23.2500 Du        
   6333 ****       223.7500  26.2500  23.5000 Du        
   6334 ****       223.7500  26.2500  23.7500 Du        
   6335 ****       223.7500  26.2500  24.0000 Du        
   6336 ****       223.7500  26.2500  24.2500 Du        
   6337 ****       223.7500  26.2500  24.5000 Du        
   6338 ****       223.7500  26.2500  24.7500 Du        
   6339 ****       223.7500  26.2500  25.0000 Du        
   6340 ****       223.7500  26.2500  25.2500 Du        
   6341 ****       223.7500  26.2500  25.5000 Du        
   6342 ****       223.7500  26.2500  25.7500 Du        
   6343 ****       223.7500  26.5000  22.7500 Du        
   6344 ****       223.7500  26.5000  23.0000 Du        
   6345 ****       223.7500  26.5000  23.2500 Du        
   6346 ****       223.7500  26.5000  23.5000 Du        
   6347 ****       223.7500  26.5000  23.7500 Du        
   6348 ****       223.7500  26.5000  24.0000 Du        
   6349 ****       223.7500  26.5000  24.2500 Du        
   6350 ****       223.7500  26.5000  24.5000 Du        
   6351 ****       223.7500  26.5000  24.7500 Du        
   6352 ****       223.7500  26.5000  25.0000 Du        
   6353 ****       223.7500  26.5000  25.2500 Du        
   6354 ****       223.7500  26.5000  25.5000 Du        
   6355 ****       223.7500  26.5000  25.7500 Du        
   6356 ****       223.7500  26.7500  23.0000 Du        
   6357 ****       223.7500  26.7500  23.2500 Du        
   6358 ****       223.7500  26.7500  25.5000 Du        
   6359 ****       223.7500  26.7500  25.7500 Du        
   6360 ****       223.7500  27.0000  25.7500 Du        
   6361 ****       224.0000   6.7500   9.7500 Du        
   6362 ****       224.0000   6.7500  10.0000 Du        
   6363 ****       224.0000   6.7500  10.2500 Du        
   6364 ****       224.0000   7.0000   9.7500 Du        
   6365 ****       224.0000   7.0000  10.0000 Du        
   6366 ****       224.0000   7.0000  10.2500 Du        
   6367 ****       224.0000   7.2500  10.0000 Du        
   6368 ****       224.0000   7.2500  10.2500 Du        
   6369 ****       224.0000   7.5000  10.0000 Du        
   6370 ****       224.0000   7.5000  10.2500 Du        
   6371 ****       224.0000   8.2500  14.2500 Du        
   6372 ****       224.0000   8.5000  14.5000 Du        
   6373 ****       224.0000   8.5000  14.7500 Du        
   6374 ****       224.0000   8.7500  14.5000 Du        
   6375 ****       224.0000   8.7500  14.7500 Du        
   6376 ****       224.0000   8.7500  15.0000 Du        
   6377 ****       224.0000   9.0000  14.7500 Du        
   6378 ****       224.0000  13.7500  17.2500 Du        
   6379 ****       224.0000  13.7500  17.5000 Du        
   6380 ****       224.0000  13.7500  17.7500 Du        
   6381 ****       224.0000  14.0000  17.2500 Du        
   6382 ****       224.0000  14.0000  17.5000 Du        
   6383 ****       224.0000  14.0000  17.7500 Du        
   6384 ****       224.0000  14.0000  18.0000 Du        
   6385 ****       224.0000  14.0000  18.2500 Du        
   6386 ****       224.0000  14.2500  17.2500 Du        
   6387 ****       224.0000  14.2500  17.5000 Du        
   6388 ****       224.0000  14.2500  17.7500 Du        
   6389 ****       224.0000  14.2500  18.0000 Du        
   6390 ****       224.0000  14.2500  18.2500 Du        
   6391 ****       224.0000  14.5000  17.5000 Du        
   6392 ****       224.0000  14.5000  17.7500 Du        
   6393 ****       224.0000  14.5000  18.0000 Du        
   6394 ****       224.0000  14.5000  18.2500 Du        
   6395 ****       224.0000  14.7500  17.5000 Du        
   6396 ****       224.0000  14.7500  17.7500 Du        
   6397 ****       224.0000  14.7500  18.0000 Du        
   6398 ****       224.0000  14.7500  18.2500 Du        
   6399 ****       224.0000  14.7500  18.5000 Du        
   6400 ****       224.0000  15.0000  17.5000 Du        
   6401 ****       224.0000  15.0000  17.7500 Du        
   6402 ****       224.0000  15.0000  18.0000 Du        
   6403 ****       224.0000  15.0000  18.2500 Du        
   6404 ****       224.0000  15.0000  18.5000 Du        
   6405 ****       224.0000  15.2500  17.5000 Du        
   6406 ****       224.0000  15.2500  17.7500 Du        
   6407 ****       224.0000  15.2500  18.0000 Du        
   6408 ****       224.0000  15.2500  18.2500 Du        
   6409 ****       224.0000  15.2500  18.5000 Du        
   6410 ****       224.0000  15.5000  17.5000 Du        
   6411 ****       224.0000  15.5000  17.7500 Du        
   6412 ****       224.0000  15.5000  18.0000 Du        
   6413 ****       224.0000  15.5000  18.2500 Du        
   6414 ****       224.0000  15.5000  18.5000 Du        
   6415 ****       224.0000  15.7500  17.5000 Du        
   6416 ****       224.0000  15.7500  17.7500 Du        
   6417 ****       224.0000  15.7500  18.0000 Du        
   6418 ****       224.0000  15.7500  18.2500 Du        
   6419 ****       224.0000  15.7500  18.5000 Du        
   6420 ****       224.0000  16.0000  17.5000 Du        
   6421 ****       224.0000  16.0000  17.7500 Du        
   6422 ****       224.0000  16.0000  18.0000 Du        
   6423 ****       224.0000  16.0000  18.2500 Du        
   6424 ****       224.0000  16.0000  18.5000 Du        
   6425 ****       224.0000  16.2500  17.7500 Du        
   6426 ****       224.0000  16.2500  18.0000 Du        
   6427 ****       224.0000  16.2500  18.2500 Du        
   6428 ****       224.0000  16.2500  18.5000 Du        
   6429 ****       224.0000  16.2500  18.7500 Du        
   6430 ****       224.0000  16.5000  17.7500 Du        
   6431 ****       224.0000  16.5000  18.0000 Du        
   6432 ****       224.0000  16.5000  18.2500 Du        
   6433 ****       224.0000  16.5000  18.5000 Du        
   6434 ****       224.0000  16.5000  18.7500 Du        
   6435 ****       224.0000  16.7500  17.5000 Du        
   6436 ****       224.0000  16.7500  17.7500 Du        
   6437 ****       224.0000  16.7500  18.0000 Du        
   6438 ****       224.0000  16.7500  18.2500 Du        
   6439 ****       224.0000  16.7500  18.5000 Du        
   6440 ****       224.0000  16.7500  18.7500 Du        
   6441 ****       224.0000  16.7500  19.0000 Du        
   6442 ****       224.0000  17.0000  17.5000 Du        
   6443 ****       224.0000  17.0000  17.7500 Du        
   6444 ****       224.0000  17.0000  18.0000 Du        
   6445 ****       224.0000  17.0000  18.2500 Du        
   6446 ****       224.0000  17.0000  18.5000 Du        
   6447 ****       224.0000  17.0000  18.7500 Du        
   6448 ****       224.0000  17.0000  19.0000 Du        
   6449 ****       224.0000  17.2500  17.5000 Du        
   6450 ****       224.0000  17.2500  17.7500 Du        
   6451 ****       224.0000  17.2500  18.0000 Du        
   6452 ****       224.0000  17.2500  18.2500 Du        
   6453 ****       224.0000  17.2500  18.5000 Du        
   6454 ****       224.0000  17.2500  18.7500 Du        
   6455 ****       224.0000  17.2500  19.0000 Du        
   6456 ****       224.0000  17.5000  17.5000 Du        
   6457 ****       224.0000  17.5000  17.7500 Du        
   6458 ****       224.0000  17.5000  18.0000 Du        
   6459 ****       224.0000  17.5000  18.2500 Du        
   6460 ****       224.0000  17.5000  18.5000 Du        
   6461 ****       224.0000  17.5000  18.7500 Du        
   6462 ****       224.0000  17.5000  19.0000 Du        
   6463 ****       224.0000  17.5000  19.2500 Du        
   6464 ****       224.0000  17.7500  17.2500 Du        
   6465 ****       224.0000  17.7500  17.5000 Du        
   6466 ****       224.0000  17.7500  17.7500 Du        
   6467 ****       224.0000  17.7500  18.0000 Du        
   6468 ****       224.0000  17.7500  18.2500 Du        
   6469 ****       224.0000  17.7500  18.5000 Du        
   6470 ****       224.0000  17.7500  18.7500 Du        
   6471 ****       224.0000  17.7500  19.0000 Du        
   6472 ****       224.0000  18.0000  17.2500 Du        
   6473 ****       224.0000  18.0000  17.5000 Du        
   6474 ****       224.0000  18.0000  17.7500 Du        
   6475 ****       224.0000  18.0000  18.0000 Du        
   6476 ****       224.0000  18.0000  18.2500 Du        
   6477 ****       224.0000  18.0000  18.5000 Du        
   6478 ****       224.0000  19.0000  13.2500 Du        
   6479 ****       224.0000  19.2500  13.2500 Du        
   6480 ****       224.0000  19.5000  13.2500 Du        
   6481 ****       224.0000  19.5000  13.5000 Du        
   6482 ****       224.0000  19.5000  13.7500 Du        
   6483 ****       224.0000  19.5000  14.0000 Du        
   6484 ****       224.0000  19.5000  14.2500 Du        
   6485 ****       224.0000  19.7500  13.2500 Du        
   6486 ****       224.0000  19.7500  13.5000 Du        
   6487 ****       224.0000  19.7500  13.7500 Du        
   6488 ****       224.0000  19.7500  14.0000 Du        
   6489 ****       224.0000  19.7500  14.2500 Du        
   6490 ****       224.0000  19.7500  14.7500 Du        
   6491 ****       224.0000  19.7500  15.0000 Du        
   6492 ****       224.0000  20.0000  13.0000 Du        
   6493 ****       224.0000  20.0000  13.2500 Du        
   6494 ****       224.0000  20.0000  13.5000 Du        
   6495 ****       224.0000  20.0000  13.7500 Du        
   6496 ****       224.0000  20.0000  14.0000 Du        
   6497 ****       224.0000  20.0000  14.2500 Du        
   6498 ****       224.0000  20.0000  14.5000 Du        
   6499 ****       224.0000  20.0000  14.7500 Du        
   6500 ****       224.0000  20.0000  15.0000 Du        
   6501 ****       224.0000  20.0000  15.2500 Du        
   6502 ****       224.0000  20.2500  13.0000 Du        
   6503 ****       224.0000  20.2500  13.2500 Du        
   6504 ****       224.0000  20.2500  13.5000 Du        
   6505 ****       224.0000  20.2500  13.7500 Du        
   6506 ****       224.0000  20.2500  14.0000 Du        
   6507 ****       224.0000  20.2500  14.2500 Du        
   6508 ****       224.0000  20.2500  14.5000 Du        
   6509 ****       224.0000  20.2500  14.7500 Du        
   6510 ****       224.0000  20.2500  15.0000 Du        
   6511 ****       224.0000  20.2500  15.2500 Du        
   6512 ****       224.0000  20.5000  13.0000 Du        
   6513 ****       224.0000  20.5000  13.2500 Du        
   6514 ****       224.0000  20.5000  13.5000 Du        
   6515 ****       224.0000  20.5000  13.7500 Du        
   6516 ****       224.0000  20.5000  14.0000 Du        
   6517 ****       224.0000  20.5000  14.2500 Du        
   6518 ****       224.0000  20.5000  14.5000 Du        
   6519 ****       224.0000  20.5000  14.7500 Du        
   6520 ****       224.0000  20.5000  15.0000 Du        
   6521 ****       224.0000  20.5000  15.2500 Du        
   6522 ****       224.0000  20.7500  13.0000 Du        
   6523 ****       224.0000  20.7500  13.2500 Du        
   6524 ****       224.0000  20.7500  13.5000 Du        
   6525 ****       224.0000  20.7500  13.7500 Du        
   6526 ****       224.0000  20.7500  14.0000 Du        
   6527 ****       224.0000  20.7500  14.2500 Du        
   6528 ****       224.0000  20.7500  14.5000 Du        
   6529 ****       224.0000  20.7500  14.7500 Du        
   6530 ****       224.0000  20.7500  15.0000 Du        
   6531 ****       224.0000  20.7500  15.2500 Du        
   6532 ****       224.0000  21.0000  13.0000 Du        
   6533 ****       224.0000  21.0000  13.2500 Du        
   6534 ****       224.0000  21.0000  13.5000 Du        
   6535 ****       224.0000  21.0000  13.7500 Du        
   6536 ****       224.0000  21.0000  14.0000 Du        
   6537 ****       224.0000  21.0000  14.2500 Du        
   6538 ****       224.0000  21.0000  14.5000 Du        
   6539 ****       224.0000  21.0000  14.7500 Du        
   6540 ****       224.0000  21.0000  15.0000 Du        
   6541 ****       224.0000  21.0000  15.2500 Du        
   6542 ****       224.0000  21.2500  13.0000 Du        
   6543 ****       224.0000  21.2500  13.2500 Du        
   6544 ****       224.0000  21.2500  13.5000 Du        
   6545 ****       224.0000  21.2500  13.7500 Du        
   6546 ****       224.0000  21.2500  14.0000 Du        
   6547 ****       224.0000  21.2500  14.2500 Du        
   6548 ****       224.0000  21.2500  14.5000 Du        
   6549 ****       224.0000  21.2500  14.7500 Du        
   6550 ****       224.0000  21.2500  15.0000 Du        
   6551 ****       224.0000  21.2500  15.2500 Du        
   6552 ****       224.0000  21.5000  14.5000 Du        
   6553 ****       224.0000  21.5000  14.7500 Du        
   6554 ****       224.0000  21.5000  15.0000 Du        
   6555 ****       224.0000  21.7500  25.7500 Du        
   6556 ****       224.0000  22.0000  25.7500 Du        
   6557 ****       224.0000  22.2500  25.5000 Du        
   6558 ****       224.0000  22.2500  25.7500 Du        
   6559 ****       224.0000  22.5000  25.2500 Du        
   6560 ****       224.0000  22.5000  25.5000 Du        
   6561 ****       224.0000  22.5000  25.7500 Du        
   6562 ****       224.0000  22.7500  25.0000 Du        
   6563 ****       224.0000  22.7500  25.2500 Du        
   6564 ****       224.0000  22.7500  25.5000 Du        
   6565 ****       224.0000  22.7500  25.7500 Du        
   6566 ****       224.0000  23.0000  24.7500 Du        
   6567 ****       224.0000  23.0000  25.0000 Du        
   6568 ****       224.0000  23.0000  25.2500 Du        
   6569 ****       224.0000  23.0000  25.5000 Du        
   6570 ****       224.0000  23.0000  25.7500 Du        
   6571 ****       224.0000  23.2500  24.5000 Du        
   6572 ****       224.0000  23.2500  24.7500 Du        
   6573 ****       224.0000  23.2500  25.0000 Du        
   6574 ****       224.0000  23.2500  25.2500 Du        
   6575 ****       224.0000  23.2500  25.5000 Du        
   6576 ****       224.0000  23.2500  25.7500 Du        
   6577 ****       224.0000  23.5000  22.7500 Du        
   6578 ****       224.0000  23.5000  23.0000 Du        
   6579 ****       224.0000  23.5000  23.2500 Du        
   6580 ****       224.0000  23.5000  23.5000 Du        
   6581 ****       224.0000  23.5000  23.7500 Du        
   6582 ****       224.0000  23.5000  24.0000 Du        
   6583 ****       224.0000  23.5000  24.2500 Du        
   6584 ****       224.0000  23.5000  24.5000 Du        
   6585 ****       224.0000  23.5000  24.7500 Du        
   6586 ****       224.0000  23.5000  25.0000 Du        
   6587 ****       224.0000  23.5000  25.2500 Du        
   6588 ****       224.0000  23.5000  25.5000 Du        
   6589 ****       224.0000  23.5000  25.7500 Du        
   6590 ****       224.0000  23.7500  22.5000 Du        
   6591 ****       224.0000  23.7500  22.7500 Du        
   6592 ****       224.0000  23.7500  23.0000 Du        
   6593 ****       224.0000  23.7500  23.2500 Du        
   6594 ****       224.0000  23.7500  23.5000 Du        
   6595 ****       224.0000  23.7500  23.7500 Du        
   6596 ****       224.0000  23.7500  24.0000 Du        
   6597 ****       224.0000  23.7500  24.2500 Du        
   6598 ****       224.0000  23.7500  24.5000 Du        
   6599 ****       224.0000  23.7500  24.7500 Du        
   6600 ****       224.0000  23.7500  25.0000 Du        
   6601 ****       224.0000  23.7500  25.2500 Du        
   6602 ****       224.0000  23.7500  25.5000 Du        
   6603 ****       224.0000  23.7500  25.7500 Du        
   6604 ****       224.0000  24.0000  22.5000 Du        
   6605 ****       224.0000  24.0000  22.7500 Du        
   6606 ****       224.0000  24.0000  23.0000 Du        
   6607 ****       224.0000  24.0000  23.2500 Du        
   6608 ****       224.0000  24.0000  23.5000 Du        
   6609 ****       224.0000  24.0000  23.7500 Du        
   6610 ****       224.0000  24.0000  24.0000 Du        
   6611 ****       224.0000  24.0000  24.2500 Du        
   6612 ****       224.0000  24.0000  24.5000 Du        
   6613 ****       224.0000  24.0000  24.7500 Du        
   6614 ****       224.0000  24.0000  25.0000 Du        
   6615 ****       224.0000  24.0000  25.2500 Du        
   6616 ****       224.0000  24.0000  25.5000 Du        
   6617 ****       224.0000  24.0000  25.7500 Du        
   6618 ****       224.0000  24.2500  22.5000 Du        
   6619 ****       224.0000  24.2500  22.7500 Du        
   6620 ****       224.0000  24.2500  23.0000 Du        
   6621 ****       224.0000  24.2500  23.2500 Du        
   6622 ****       224.0000  24.2500  23.5000 Du        
   6623 ****       224.0000  24.2500  23.7500 Du        
   6624 ****       224.0000  24.2500  24.0000 Du        
   6625 ****       224.0000  24.2500  24.2500 Du        
   6626 ****       224.0000  24.2500  24.5000 Du        
   6627 ****       224.0000  24.2500  24.7500 Du        
   6628 ****       224.0000  24.2500  25.0000 Du        
   6629 ****       224.0000  24.2500  25.2500 Du        
   6630 ****       224.0000  24.2500  25.5000 Du        
   6631 ****       224.0000  24.2500  25.7500 Du        
   6632 ****       224.0000  24.5000  22.5000 Du        
   6633 ****       224.0000  24.5000  22.7500 Du        
   6634 ****       224.0000  24.5000  23.0000 Du        
   6635 ****       224.0000  24.5000  23.2500 Du        
   6636 ****       224.0000  24.5000  23.5000 Du        
   6637 ****       224.0000  24.5000  23.7500 Du        
   6638 ****       224.0000  24.5000  24.0000 Du        
   6639 ****       224.0000  24.5000  24.2500 Du        
   6640 ****       224.0000  24.5000  24.5000 Du        
   6641 ****       224.0000  24.5000  24.7500 Du        
   6642 ****       224.0000  24.5000  25.0000 Du        
   6643 ****       224.0000  24.5000  25.2500 Du        
   6644 ****       224.0000  24.5000  25.5000 Du        
   6645 ****       224.0000  24.5000  25.7500 Du        
   6646 ****       224.0000  24.7500  22.5000 Du        
   6647 ****       224.0000  24.7500  22.7500 Du        
   6648 ****       224.0000  24.7500  23.0000 Du        
   6649 ****       224.0000  24.7500  23.2500 Du        
   6650 ****       224.0000  24.7500  23.5000 Du        
   6651 ****       224.0000  24.7500  23.7500 Du        
   6652 ****       224.0000  24.7500  24.0000 Du        
   6653 ****       224.0000  24.7500  24.2500 Du        
   6654 ****       224.0000  24.7500  24.5000 Du        
   6655 ****       224.0000  24.7500  24.7500 Du        
   6656 ****       224.0000  24.7500  25.0000 Du        
   6657 ****       224.0000  24.7500  25.2500 Du        
   6658 ****       224.0000  24.7500  25.5000 Du        
   6659 ****       224.0000  24.7500  25.7500 Du        
   6660 ****       224.0000  25.0000  22.5000 Du        
   6661 ****       224.0000  25.0000  22.7500 Du        
   6662 ****       224.0000  25.0000  23.0000 Du        
   6663 ****       224.0000  25.0000  23.2500 Du        
   6664 ****       224.0000  25.0000  23.5000 Du        
   6665 ****       224.0000  25.0000  23.7500 Du        
   6666 ****       224.0000  25.0000  24.0000 Du        
   6667 ****       224.0000  25.0000  24.2500 Du        
   6668 ****       224.0000  25.0000  24.5000 Du        
   6669 ****       224.0000  25.0000  24.7500 Du        
   6670 ****       224.0000  25.0000  25.0000 Du        
   6671 ****       224.0000  25.0000  25.2500 Du        
   6672 ****       224.0000  25.0000  25.5000 Du        
   6673 ****       224.0000  25.0000  25.7500 Du        
   6674 ****       224.0000  25.2500  22.5000 Du        
   6675 ****       224.0000  25.2500  22.7500 Du        
   6676 ****       224.0000  25.2500  23.0000 Du        
   6677 ****       224.0000  25.2500  23.2500 Du        
   6678 ****       224.0000  25.2500  23.5000 Du        
   6679 ****       224.0000  25.2500  23.7500 Du        
   6680 ****       224.0000  25.2500  24.0000 Du        
   6681 ****       224.0000  25.2500  24.2500 Du        
   6682 ****       224.0000  25.2500  24.5000 Du        
   6683 ****       224.0000  25.2500  24.7500 Du        
   6684 ****       224.0000  25.2500  25.0000 Du        
   6685 ****       224.0000  25.2500  25.2500 Du        
   6686 ****       224.0000  25.2500  25.5000 Du        
   6687 ****       224.0000  25.2500  25.7500 Du        
   6688 ****       224.0000  25.5000  22.5000 Du        
   6689 ****       224.0000  25.5000  22.7500 Du        
   6690 ****       224.0000  25.5000  23.0000 Du        
   6691 ****       224.0000  25.5000  23.2500 Du        
   6692 ****       224.0000  25.5000  23.5000 Du        
   6693 ****       224.0000  25.5000  23.7500 Du        
   6694 ****       224.0000  25.5000  24.0000 Du        
   6695 ****       224.0000  25.5000  24.2500 Du        
   6696 ****       224.0000  25.5000  24.5000 Du        
   6697 ****       224.0000  25.5000  24.7500 Du        
   6698 ****       224.0000  25.5000  25.0000 Du        
   6699 ****       224.0000  25.5000  25.2500 Du        
   6700 ****       224.0000  25.5000  25.5000 Du        
   6701 ****       224.0000  25.5000  25.7500 Du        
   6702 ****       224.0000  25.7500  22.5000 Du        
   6703 ****       224.0000  25.7500  22.7500 Du        
   6704 ****       224.0000  25.7500  23.0000 Du        
   6705 ****       224.0000  25.7500  23.2500 Du        
   6706 ****       224.0000  25.7500  23.5000 Du        
   6707 ****       224.0000  25.7500  23.7500 Du        
   6708 ****       224.0000  25.7500  24.0000 Du        
   6709 ****       224.0000  25.7500  24.2500 Du        
   6710 ****       224.0000  25.7500  24.5000 Du        
   6711 ****       224.0000  25.7500  24.7500 Du        
   6712 ****       224.0000  25.7500  25.0000 Du        
   6713 ****       224.0000  25.7500  25.2500 Du        
   6714 ****       224.0000  25.7500  25.5000 Du        
   6715 ****       224.0000  25.7500  25.7500 Du        
   6716 ****       224.0000  26.0000  22.5000 Du        
   6717 ****       224.0000  26.0000  22.7500 Du        
   6718 ****       224.0000  26.0000  23.0000 Du        
   6719 ****       224.0000  26.0000  23.2500 Du        
   6720 ****       224.0000  26.0000  23.5000 Du        
   6721 ****       224.0000  26.0000  23.7500 Du        
   6722 ****       224.0000  26.0000  24.0000 Du        
   6723 ****       224.0000  26.0000  24.2500 Du        
   6724 ****       224.0000  26.0000  24.5000 Du        
   6725 ****       224.0000  26.0000  24.7500 Du        
   6726 ****       224.0000  26.0000  25.0000 Du        
   6727 ****       224.0000  26.0000  25.2500 Du        
   6728 ****       224.0000  26.0000  25.5000 Du        
   6729 ****       224.0000  26.0000  25.7500 Du        
   6730 ****       224.0000  26.2500  22.7500 Du        
   6731 ****       224.0000  26.2500  23.0000 Du        
   6732 ****       224.0000  26.2500  23.2500 Du        
   6733 ****       224.0000  26.2500  23.5000 Du        
   6734 ****       224.0000  26.2500  23.7500 Du        
   6735 ****       224.0000  26.2500  24.0000 Du        
   6736 ****       224.0000  26.2500  24.2500 Du        
   6737 ****       224.0000  26.2500  24.5000 Du        
   6738 ****       224.0000  26.2500  24.7500 Du        
   6739 ****       224.0000  26.2500  25.0000 Du        
   6740 ****       224.0000  26.2500  25.2500 Du        
   6741 ****       224.0000  26.2500  25.5000 Du        
   6742 ****       224.0000  26.2500  25.7500 Du        
   6743 ****       224.0000  26.5000  22.7500 Du        
   6744 ****       224.0000  26.5000  23.0000 Du        
   6745 ****       224.0000  26.5000  23.2500 Du        
   6746 ****       224.0000  26.5000  23.5000 Du        
   6747 ****       224.2500   6.7500   9.7500 Du        
   6748 ****       224.2500   6.7500  10.0000 Du        
   6749 ****       224.2500   6.7500  10.2500 Du        
   6750 ****       224.2500   7.0000  10.0000 Du        
   6751 ****       224.2500   7.0000  10.2500 Du        
   6752 ****       224.2500   7.2500  10.0000 Du        
   6753 ****       224.2500   7.2500  10.2500 Du        
   6754 ****       224.2500   7.5000  10.0000 Du        
   6755 ****       224.2500   7.5000  10.2500 Du        
   6756 ****       224.2500   7.7500  10.2500 Du        
   6757 ****       224.2500   8.0000  14.0000 Du        
   6758 ****       224.2500   8.0000  14.2500 Du        
   6759 ****       224.2500   8.2500  14.0000 Du        
   6760 ****       224.2500   8.2500  14.2500 Du        
   6761 ****       224.2500   8.2500  14.5000 Du        
   6762 ****       224.2500   8.2500  14.7500 Du        
   6763 ****       224.2500   8.2500  15.0000 Du        
   6764 ****       224.2500   8.5000  14.5000 Du        
   6765 ****       224.2500   8.5000  14.7500 Du        
   6766 ****       224.2500   8.5000  15.0000 Du        
   6767 ****       224.2500   8.7500  14.5000 Du        
   6768 ****       224.2500   8.7500  14.7500 Du        
   6769 ****       224.2500   8.7500  15.0000 Du        
   6770 ****       224.2500   9.0000  14.5000 Du        
   6771 ****       224.2500   9.0000  14.7500 Du        
   6772 ****       224.2500   9.0000  15.0000 Du        
   6773 ****       224.2500  13.7500  17.2500 Du        
   6774 ****       224.2500  13.7500  17.5000 Du        
   6775 ****       224.2500  13.7500  17.7500 Du        
   6776 ****       224.2500  14.0000  17.2500 Du        
   6777 ****       224.2500  14.0000  17.5000 Du        
   6778 ****       224.2500  14.0000  17.7500 Du        
   6779 ****       224.2500  14.0000  18.0000 Du        
   6780 ****       224.2500  14.2500  17.2500 Du        
   6781 ****       224.2500  14.2500  17.5000 Du        
   6782 ****       224.2500  14.2500  17.7500 Du        
   6783 ****       224.2500  14.2500  18.0000 Du        
   6784 ****       224.2500  14.5000  17.5000 Du        
   6785 ****       224.2500  14.5000  17.7500 Du        
   6786 ****       224.2500  14.5000  18.0000 Du        
   6787 ****       224.2500  14.7500  17.5000 Du        
   6788 ****       224.2500  14.7500  17.7500 Du        
   6789 ****       224.2500  14.7500  18.0000 Du        
   6790 ****       224.2500  15.0000  17.7500 Du        
   6791 ****       224.2500  15.0000  18.0000 Du        
   6792 ****       224.2500  15.0000  18.2500 Du        
   6793 ****       224.2500  15.2500  17.5000 Du        
   6794 ****       224.2500  15.2500  17.7500 Du        
   6795 ****       224.2500  15.2500  18.0000 Du        
   6796 ****       224.2500  15.5000  17.5000 Du        
   6797 ****       224.2500  15.5000  17.7500 Du        
   6798 ****       224.2500  15.5000  18.0000 Du        
   6799 ****       224.2500  15.7500  17.5000 Du        
   6800 ****       224.2500  15.7500  17.7500 Du        
   6801 ****       224.2500  15.7500  18.0000 Du        
   6802 ****       224.2500  16.0000  17.5000 Du        
   6803 ****       224.2500  16.0000  17.7500 Du        
   6804 ****       224.2500  16.0000  18.0000 Du        
   6805 ****       224.2500  16.0000  18.2500 Du        
   6806 ****       224.2500  16.2500  17.7500 Du        
   6807 ****       224.2500  16.2500  18.0000 Du        
   6808 ****       224.2500  16.2500  18.2500 Du        
   6809 ****       224.2500  16.2500  18.5000 Du        
   6810 ****       224.2500  16.5000  17.7500 Du        
   6811 ****       224.2500  16.5000  18.0000 Du        
   6812 ****       224.2500  16.5000  18.2500 Du        
   6813 ****       224.2500  16.5000  18.5000 Du        
   6814 ****       224.2500  16.5000  18.7500 Du        
   6815 ****       224.2500  16.7500  17.5000 Du        
   6816 ****       224.2500  16.7500  17.7500 Du        
   6817 ****       224.2500  16.7500  18.0000 Du        
   6818 ****       224.2500  16.7500  18.2500 Du        
   6819 ****       224.2500  16.7500  18.5000 Du        
   6820 ****       224.2500  16.7500  18.7500 Du        
   6821 ****       224.2500  17.0000  17.5000 Du        
   6822 ****       224.2500  17.0000  17.7500 Du        
   6823 ****       224.2500  17.0000  18.0000 Du        
   6824 ****       224.2500  17.0000  18.2500 Du        
   6825 ****       224.2500  17.0000  18.5000 Du        
   6826 ****       224.2500  17.0000  18.7500 Du        
   6827 ****       224.2500  17.0000  19.0000 Du        
   6828 ****       224.2500  17.2500  17.5000 Du        
   6829 ****       224.2500  17.2500  17.7500 Du        
   6830 ****       224.2500  17.2500  18.0000 Du        
   6831 ****       224.2500  17.2500  18.2500 Du        
   6832 ****       224.2500  17.2500  18.5000 Du        
   6833 ****       224.2500  17.2500  18.7500 Du        
   6834 ****       224.2500  17.2500  19.0000 Du        
   6835 ****       224.2500  17.5000  17.5000 Du        
   6836 ****       224.2500  17.5000  17.7500 Du        
   6837 ****       224.2500  17.5000  18.0000 Du        
   6838 ****       224.2500  17.5000  18.2500 Du        
   6839 ****       224.2500  17.5000  18.5000 Du        
   6840 ****       224.2500  17.5000  18.7500 Du        
   6841 ****       224.2500  17.5000  19.0000 Du        
   6842 ****       224.2500  17.5000  19.2500 Du        
   6843 ****       224.2500  17.7500  17.5000 Du        
   6844 ****       224.2500  17.7500  17.7500 Du        
   6845 ****       224.2500  17.7500  18.0000 Du        
   6846 ****       224.2500  17.7500  18.2500 Du        
   6847 ****       224.2500  17.7500  18.5000 Du        
   6848 ****       224.2500  17.7500  18.7500 Du        
   6849 ****       224.2500  17.7500  19.0000 Du        
   6850 ****       224.2500  18.0000  17.5000 Du        
   6851 ****       224.2500  18.0000  17.7500 Du        
   6852 ****       224.2500  18.0000  18.0000 Du        
   6853 ****       224.2500  18.0000  18.2500 Du        
   6854 ****       224.2500  18.0000  18.5000 Du        
   6855 ****       224.2500  19.5000  13.2500 Du        
   6856 ****       224.2500  19.5000  13.5000 Du        
   6857 ****       224.2500  19.5000  13.7500 Du        
   6858 ****       224.2500  19.5000  14.0000 Du        
   6859 ****       224.2500  19.5000  14.2500 Du        
   6860 ****       224.2500  19.7500  13.2500 Du        
   6861 ****       224.2500  19.7500  13.5000 Du        
   6862 ****       224.2500  19.7500  13.7500 Du        
   6863 ****       224.2500  19.7500  14.0000 Du        
   6864 ****       224.2500  19.7500  14.2500 Du        
   6865 ****       224.2500  20.0000  13.2500 Du        
   6866 ****       224.2500  20.0000  13.5000 Du        
   6867 ****       224.2500  20.0000  13.7500 Du        
   6868 ****       224.2500  20.0000  14.0000 Du        
   6869 ****       224.2500  20.0000  14.2500 Du        
   6870 ****       224.2500  20.0000  14.5000 Du        
   6871 ****       224.2500  20.0000  14.7500 Du        
   6872 ****       224.2500  20.0000  15.0000 Du        
   6873 ****       224.2500  20.2500  13.2500 Du        
   6874 ****       224.2500  20.2500  13.5000 Du        
   6875 ****       224.2500  20.2500  13.7500 Du        
   6876 ****       224.2500  20.2500  14.0000 Du        
   6877 ****       224.2500  20.2500  14.2500 Du        
   6878 ****       224.2500  20.2500  14.5000 Du        
   6879 ****       224.2500  20.2500  14.7500 Du        
   6880 ****       224.2500  20.2500  15.0000 Du        
   6881 ****       224.2500  20.5000  13.0000 Du        
   6882 ****       224.2500  20.5000  13.2500 Du        
   6883 ****       224.2500  20.5000  13.5000 Du        
   6884 ****       224.2500  20.5000  13.7500 Du        
   6885 ****       224.2500  20.5000  14.0000 Du        
   6886 ****       224.2500  20.5000  14.2500 Du        
   6887 ****       224.2500  20.5000  14.5000 Du        
   6888 ****       224.2500  20.5000  14.7500 Du        
   6889 ****       224.2500  20.5000  15.0000 Du        
   6890 ****       224.2500  20.5000  15.2500 Du        
   6891 ****       224.2500  20.7500  13.0000 Du        
   6892 ****       224.2500  20.7500  13.2500 Du        
   6893 ****       224.2500  20.7500  13.5000 Du        
   6894 ****       224.2500  20.7500  13.7500 Du        
   6895 ****       224.2500  20.7500  14.0000 Du        
   6896 ****       224.2500  20.7500  14.2500 Du        
   6897 ****       224.2500  20.7500  14.5000 Du        
   6898 ****       224.2500  20.7500  14.7500 Du        
   6899 ****       224.2500  20.7500  15.0000 Du        
   6900 ****       224.2500  20.7500  15.2500 Du        
   6901 ****       224.2500  21.0000  13.0000 Du        
   6902 ****       224.2500  21.0000  13.2500 Du        
   6903 ****       224.2500  21.0000  13.5000 Du        
   6904 ****       224.2500  21.0000  13.7500 Du        
   6905 ****       224.2500  21.0000  14.0000 Du        
   6906 ****       224.2500  21.0000  14.2500 Du        
   6907 ****       224.2500  21.0000  14.5000 Du        
   6908 ****       224.2500  21.0000  14.7500 Du        
   6909 ****       224.2500  21.0000  15.0000 Du        
   6910 ****       224.2500  21.0000  15.2500 Du        
   6911 ****       224.2500  21.2500  13.0000 Du        
   6912 ****       224.2500  21.2500  13.2500 Du        
   6913 ****       224.2500  21.2500  13.5000 Du        
   6914 ****       224.2500  21.2500  13.7500 Du        
   6915 ****       224.2500  21.2500  14.0000 Du        
   6916 ****       224.2500  21.2500  14.2500 Du        
   6917 ****       224.2500  21.2500  14.5000 Du        
   6918 ****       224.2500  21.2500  14.7500 Du        
   6919 ****       224.2500  21.2500  15.0000 Du        
   6920 ****       224.2500  21.5000  14.5000 Du        
   6921 ****       224.2500  21.5000  14.7500 Du        
   6922 ****       224.2500  21.5000  15.0000 Du        
   6923 ****       224.2500  22.2500  25.7500 Du        
   6924 ****       224.2500  22.5000  25.5000 Du        
   6925 ****       224.2500  22.5000  25.7500 Du        
   6926 ****       224.2500  22.7500  25.5000 Du        
   6927 ****       224.2500  22.7500  25.7500 Du        
   6928 ****       224.2500  23.0000  25.2500 Du        
   6929 ****       224.2500  23.0000  25.5000 Du        
   6930 ****       224.2500  23.0000  25.7500 Du        
   6931 ****       224.2500  23.2500  25.0000 Du        
   6932 ****       224.2500  23.2500  25.2500 Du        
   6933 ****       224.2500  23.2500  25.5000 Du        
   6934 ****       224.2500  23.2500  25.7500 Du        
   6935 ****       224.2500  23.5000  24.7500 Du        
   6936 ****       224.2500  23.5000  25.0000 Du        
   6937 ****       224.2500  23.5000  25.2500 Du        
   6938 ****       224.2500  23.5000  25.5000 Du        
   6939 ****       224.2500  23.5000  25.7500 Du        
   6940 ****       224.2500  23.7500  22.7500 Du        
   6941 ****       224.2500  23.7500  23.0000 Du        
   6942 ****       224.2500  23.7500  23.2500 Du        
   6943 ****       224.2500  23.7500  23.5000 Du        
   6944 ****       224.2500  23.7500  23.7500 Du        
   6945 ****       224.2500  23.7500  24.0000 Du        
   6946 ****       224.2500  23.7500  24.2500 Du        
   6947 ****       224.2500  23.7500  24.5000 Du        
   6948 ****       224.2500  23.7500  24.7500 Du        
   6949 ****       224.2500  23.7500  25.0000 Du        
   6950 ****       224.2500  23.7500  25.2500 Du        
   6951 ****       224.2500  23.7500  25.5000 Du        
   6952 ****       224.2500  23.7500  25.7500 Du        
   6953 ****       224.2500  24.0000  22.5000 Du        
   6954 ****       224.2500  24.0000  22.7500 Du        
   6955 ****       224.2500  24.0000  23.0000 Du        
   6956 ****       224.2500  24.0000  23.2500 Du        
   6957 ****       224.2500  24.0000  23.5000 Du        
   6958 ****       224.2500  24.0000  23.7500 Du        
   6959 ****       224.2500  24.0000  24.0000 Du        
   6960 ****       224.2500  24.0000  24.2500 Du        
   6961 ****       224.2500  24.0000  24.5000 Du        
   6962 ****       224.2500  24.0000  24.7500 Du        
   6963 ****       224.2500  24.0000  25.0000 Du        
   6964 ****       224.2500  24.0000  25.2500 Du        
   6965 ****       224.2500  24.0000  25.5000 Du        
   6966 ****       224.2500  24.0000  25.7500 Du        
   6967 ****       224.2500  24.2500  22.5000 Du        
   6968 ****       224.2500  24.2500  22.7500 Du        
   6969 ****       224.2500  24.2500  23.0000 Du        
   6970 ****       224.2500  24.2500  23.2500 Du        
   6971 ****       224.2500  24.2500  23.5000 Du        
   6972 ****       224.2500  24.2500  23.7500 Du        
   6973 ****       224.2500  24.2500  24.0000 Du        
   6974 ****       224.2500  24.2500  24.2500 Du        
   6975 ****       224.2500  24.2500  24.5000 Du        
   6976 ****       224.2500  24.2500  24.7500 Du        
   6977 ****       224.2500  24.2500  25.0000 Du        
   6978 ****       224.2500  24.2500  25.2500 Du        
   6979 ****       224.2500  24.2500  25.5000 Du        
   6980 ****       224.2500  24.2500  25.7500 Du        
   6981 ****       224.2500  24.5000  22.5000 Du        
   6982 ****       224.2500  24.5000  22.7500 Du        
   6983 ****       224.2500  24.5000  23.0000 Du        
   6984 ****       224.2500  24.5000  23.2500 Du        
   6985 ****       224.2500  24.5000  23.5000 Du        
   6986 ****       224.2500  24.5000  23.7500 Du        
   6987 ****       224.2500  24.5000  24.0000 Du        
   6988 ****       224.2500  24.5000  24.2500 Du        
   6989 ****       224.2500  24.5000  24.5000 Du        
   6990 ****       224.2500  24.5000  24.7500 Du        
   6991 ****       224.2500  24.5000  25.0000 Du        
   6992 ****       224.2500  24.5000  25.2500 Du        
   6993 ****       224.2500  24.5000  25.5000 Du        
   6994 ****       224.2500  24.5000  25.7500 Du        
   6995 ****       224.2500  24.7500  22.5000 Du        
   6996 ****       224.2500  24.7500  22.7500 Du        
   6997 ****       224.2500  24.7500  23.0000 Du        
   6998 ****       224.2500  24.7500  23.2500 Du        
   6999 ****       224.2500  24.7500  23.5000 Du        
   7000 ****       224.2500  24.7500  23.7500 Du        
   7001 ****       224.2500  24.7500  24.0000 Du        
   7002 ****       224.2500  24.7500  24.2500 Du        
   7003 ****       224.2500  24.7500  24.5000 Du        
   7004 ****       224.2500  24.7500  24.7500 Du        
   7005 ****       224.2500  24.7500  25.0000 Du        
   7006 ****       224.2500  24.7500  25.2500 Du        
   7007 ****       224.2500  24.7500  25.5000 Du        
   7008 ****       224.2500  24.7500  25.7500 Du        
   7009 ****       224.2500  25.0000  22.5000 Du        
   7010 ****       224.2500  25.0000  22.7500 Du        
   7011 ****       224.2500  25.0000  23.0000 Du        
   7012 ****       224.2500  25.0000  23.2500 Du        
   7013 ****       224.2500  25.0000  23.5000 Du        
   7014 ****       224.2500  25.0000  23.7500 Du        
   7015 ****       224.2500  25.0000  24.0000 Du        
   7016 ****       224.2500  25.0000  24.2500 Du        
   7017 ****       224.2500  25.0000  24.5000 Du        
   7018 ****       224.2500  25.0000  24.7500 Du        
   7019 ****       224.2500  25.0000  25.0000 Du        
   7020 ****       224.2500  25.0000  25.2500 Du        
   7021 ****       224.2500  25.0000  25.5000 Du        
   7022 ****       224.2500  25.0000  25.7500 Du        
   7023 ****       224.2500  25.2500  22.5000 Du        
   7024 ****       224.2500  25.2500  22.7500 Du        
   7025 ****       224.2500  25.2500  23.0000 Du        
   7026 ****       224.2500  25.2500  23.2500 Du        
   7027 ****       224.2500  25.2500  23.5000 Du        
   7028 ****       224.2500  25.2500  23.7500 Du        
   7029 ****       224.2500  25.2500  24.0000 Du        
   7030 ****       224.2500  25.2500  24.2500 Du        
   7031 ****       224.2500  25.2500  24.5000 Du        
   7032 ****       224.2500  25.2500  24.7500 Du        
   7033 ****       224.2500  25.2500  25.0000 Du        
   7034 ****       224.2500  25.2500  25.2500 Du        
   7035 ****       224.2500  25.2500  25.5000 Du        
   7036 ****       224.2500  25.2500  25.7500 Du        
   7037 ****       224.2500  25.5000  22.5000 Du        
   7038 ****       224.2500  25.5000  22.7500 Du        
   7039 ****       224.2500  25.5000  23.0000 Du        
   7040 ****       224.2500  25.5000  23.2500 Du        
   7041 ****       224.2500  25.5000  23.5000 Du        
   7042 ****       224.2500  25.5000  23.7500 Du        
   7043 ****       224.2500  25.5000  24.0000 Du        
   7044 ****       224.2500  25.5000  24.2500 Du        
   7045 ****       224.2500  25.5000  24.5000 Du        
   7046 ****       224.2500  25.5000  24.7500 Du        
   7047 ****       224.2500  25.5000  25.0000 Du        
   7048 ****       224.2500  25.5000  25.2500 Du        
   7049 ****       224.2500  25.5000  25.5000 Du        
   7050 ****       224.2500  25.5000  25.7500 Du        
   7051 ****       224.2500  25.7500  22.5000 Du        
   7052 ****       224.2500  25.7500  22.7500 Du        
   7053 ****       224.2500  25.7500  23.0000 Du        
   7054 ****       224.2500  25.7500  23.2500 Du        
   7055 ****       224.2500  25.7500  23.5000 Du        
   7056 ****       224.2500  25.7500  23.7500 Du        
   7057 ****       224.2500  25.7500  24.0000 Du        
   7058 ****       224.2500  25.7500  24.2500 Du        
   7059 ****       224.2500  25.7500  24.5000 Du        
   7060 ****       224.2500  25.7500  24.7500 Du        
   7061 ****       224.2500  25.7500  25.0000 Du        
   7062 ****       224.2500  25.7500  25.2500 Du        
   7063 ****       224.2500  25.7500  25.5000 Du        
   7064 ****       224.2500  25.7500  25.7500 Du        
   7065 ****       224.2500  26.0000  22.5000 Du        
   7066 ****       224.2500  26.0000  22.7500 Du        
   7067 ****       224.2500  26.0000  23.0000 Du        
   7068 ****       224.2500  26.0000  23.2500 Du        
   7069 ****       224.2500  26.0000  23.5000 Du        
   7070 ****       224.2500  26.0000  23.7500 Du        
   7071 ****       224.2500  26.0000  24.0000 Du        
   7072 ****       224.2500  26.0000  24.2500 Du        
   7073 ****       224.2500  26.0000  24.5000 Du        
   7074 ****       224.2500  26.0000  24.7500 Du        
   7075 ****       224.2500  26.2500  22.7500 Du        
   7076 ****       224.2500  26.2500  23.0000 Du        
   7077 ****       224.2500  26.2500  23.2500 Du        
   7078 ****       224.2500  26.2500  23.5000 Du        
   7079 ****       224.2500  26.2500  23.7500 Du        
   7080 ****       224.2500  26.2500  24.0000 Du        
   7081 ****       224.5000   6.7500  10.0000 Du        
   7082 ****       224.5000   6.7500  10.2500 Du        
   7083 ****       224.5000   7.0000  10.0000 Du        
   7084 ****       224.5000   7.0000  10.2500 Du        
   7085 ****       224.5000   7.2500  10.2500 Du        
   7086 ****       224.5000   7.5000  10.2500 Du        
   7087 ****       224.5000   7.5000  10.5000 Du        
   7088 ****       224.5000   7.7500  10.7500 Du        
   7089 ****       224.5000   7.7500  13.7500 Du        
   7090 ****       224.5000   7.7500  14.0000 Du        
   7091 ****       224.5000   8.0000  10.7500 Du        
   7092 ****       224.5000   8.0000  11.0000 Du        
   7093 ****       224.5000   8.0000  13.7500 Du        
   7094 ****       224.5000   8.0000  14.0000 Du        
   7095 ****       224.5000   8.0000  14.2500 Du        
   7096 ****       224.5000   8.0000  14.5000 Du        
   7097 ****       224.5000   8.2500  13.7500 Du        
   7098 ****       224.5000   8.2500  14.0000 Du        
   7099 ****       224.5000   8.2500  14.2500 Du        
   7100 ****       224.5000   8.2500  14.5000 Du        
   7101 ****       224.5000   8.2500  14.7500 Du        
   7102 ****       224.5000   8.5000  13.7500 Du        
   7103 ****       224.5000   8.5000  14.0000 Du        
   7104 ****       224.5000   8.5000  14.5000 Du        
   7105 ****       224.5000   8.5000  14.7500 Du        
   7106 ****       224.5000   8.5000  15.0000 Du        
   7107 ****       224.5000   8.7500  14.0000 Du        
   7108 ****       224.5000   8.7500  14.2500 Du        
   7109 ****       224.5000   8.7500  14.5000 Du        
   7110 ****       224.5000   8.7500  14.7500 Du        
   7111 ****       224.5000   8.7500  15.0000 Du        
   7112 ****       224.5000   9.0000  14.0000 Du        
   7113 ****       224.5000   9.0000  14.2500 Du        
   7114 ****       224.5000   9.0000  14.5000 Du        
   7115 ****       224.5000   9.0000  14.7500 Du        
   7116 ****       224.5000   9.2500  14.2500 Du        
   7117 ****       224.5000  13.7500  17.2500 Du        
   7118 ****       224.5000  13.7500  17.5000 Du        
   7119 ****       224.5000  14.0000  17.2500 Du        
   7120 ****       224.5000  14.0000  17.5000 Du        
   7121 ****       224.5000  14.0000  17.7500 Du        
   7122 ****       224.5000  14.2500  17.2500 Du        
   7123 ****       224.5000  14.2500  17.5000 Du        
   7124 ****       224.5000  14.2500  17.7500 Du        
   7125 ****       224.5000  14.5000  17.5000 Du        
   7126 ****       224.5000  14.5000  17.7500 Du        
   7127 ****       224.5000  14.7500  17.5000 Du        
   7128 ****       224.5000  14.7500  17.7500 Du        
   7129 ****       224.5000  16.0000  17.7500 Du        
   7130 ****       224.5000  16.2500  17.7500 Du        
   7131 ****       224.5000  16.2500  18.0000 Du        
   7132 ****       224.5000  16.5000  17.7500 Du        
   7133 ****       224.5000  16.7500  17.5000 Du        
   7134 ****       224.5000  16.7500  17.7500 Du        
   7135 ****       224.5000  16.7500  18.0000 Du        
   7136 ****       224.5000  16.7500  18.2500 Du        
   7137 ****       224.5000  17.0000  17.5000 Du        
   7138 ****       224.5000  17.0000  17.7500 Du        
   7139 ****       224.5000  17.0000  18.0000 Du        
   7140 ****       224.5000  17.0000  18.2500 Du        
   7141 ****       224.5000  17.0000  18.5000 Du        
   7142 ****       224.5000  17.0000  18.7500 Du        
   7143 ****       224.5000  17.2500  17.5000 Du        
   7144 ****       224.5000  17.2500  17.7500 Du        
   7145 ****       224.5000  17.2500  18.0000 Du        
   7146 ****       224.5000  17.2500  18.2500 Du        
   7147 ****       224.5000  17.2500  18.5000 Du        
   7148 ****       224.5000  17.2500  18.7500 Du        
   7149 ****       224.5000  17.2500  19.0000 Du        
   7150 ****       224.5000  17.5000  17.5000 Du        
   7151 ****       224.5000  17.5000  17.7500 Du        
   7152 ****       224.5000  17.5000  18.0000 Du        
   7153 ****       224.5000  17.5000  18.2500 Du        
   7154 ****       224.5000  17.5000  18.5000 Du        
   7155 ****       224.5000  17.5000  18.7500 Du        
   7156 ****       224.5000  17.5000  19.0000 Du        
   7157 ****       224.5000  17.7500  17.5000 Du        
   7158 ****       224.5000  17.7500  17.7500 Du        
   7159 ****       224.5000  17.7500  18.0000 Du        
   7160 ****       224.5000  17.7500  18.2500 Du        
   7161 ****       224.5000  17.7500  18.5000 Du        
   7162 ****       224.5000  19.7500  13.5000 Du        
   7163 ****       224.5000  19.7500  13.7500 Du        
   7164 ****       224.5000  19.7500  14.0000 Du        
   7165 ****       224.5000  19.7500  14.2500 Du        
   7166 ****       224.5000  20.0000  13.2500 Du        
   7167 ****       224.5000  20.0000  13.5000 Du        
   7168 ****       224.5000  20.0000  13.7500 Du        
   7169 ****       224.5000  20.0000  14.0000 Du        
   7170 ****       224.5000  20.0000  14.2500 Du        
   7171 ****       224.5000  20.0000  14.7500 Du        
   7172 ****       224.5000  20.2500  13.2500 Du        
   7173 ****       224.5000  20.2500  13.5000 Du        
   7174 ****       224.5000  20.2500  13.7500 Du        
   7175 ****       224.5000  20.2500  14.0000 Du        
   7176 ****       224.5000  20.2500  14.2500 Du        
   7177 ****       224.5000  20.2500  14.5000 Du        
   7178 ****       224.5000  20.2500  14.7500 Du        
   7179 ****       224.5000  20.2500  15.0000 Du        
   7180 ****       224.5000  20.5000  13.2500 Du        
   7181 ****       224.5000  20.5000  13.5000 Du        
   7182 ****       224.5000  20.5000  13.7500 Du        
   7183 ****       224.5000  20.5000  14.0000 Du        
   7184 ****       224.5000  20.5000  14.2500 Du        
   7185 ****       224.5000  20.5000  14.5000 Du        
   7186 ****       224.5000  20.5000  14.7500 Du        
   7187 ****       224.5000  20.5000  15.0000 Du        
   7188 ****       224.5000  20.7500  13.2500 Du        
   7189 ****       224.5000  20.7500  13.5000 Du        
   7190 ****       224.5000  20.7500  13.7500 Du        
   7191 ****       224.5000  20.7500  14.0000 Du        
   7192 ****       224.5000  20.7500  14.2500 Du        
   7193 ****       224.5000  20.7500  14.5000 Du        
   7194 ****       224.5000  20.7500  14.7500 Du        
   7195 ****       224.5000  20.7500  15.0000 Du        
   7196 ****       224.5000  21.0000  13.0000 Du        
   7197 ****       224.5000  21.0000  13.2500 Du        
   7198 ****       224.5000  21.0000  13.5000 Du        
   7199 ****       224.5000  21.0000  13.7500 Du        
   7200 ****       224.5000  21.0000  14.0000 Du        
   7201 ****       224.5000  21.0000  14.2500 Du        
   7202 ****       224.5000  21.0000  14.5000 Du        
   7203 ****       224.5000  21.0000  14.7500 Du        
   7204 ****       224.5000  21.0000  15.0000 Du        
   7205 ****       224.5000  21.2500  14.0000 Du        
   7206 ****       224.5000  21.2500  14.2500 Du        
   7207 ****       224.5000  21.2500  14.5000 Du        
   7208 ****       224.5000  21.2500  14.7500 Du        
   7209 ****       224.5000  21.2500  15.0000 Du        
   7210 ****       224.5000  21.5000  14.7500 Du        
   7211 ****       224.5000  21.5000  15.0000 Du        
   7212 ****       224.5000  22.5000  25.7500 Du        
   7213 ****       224.5000  22.7500  25.7500 Du        
   7214 ****       224.5000  23.0000  25.5000 Du        
   7215 ****       224.5000  23.0000  25.7500 Du        
   7216 ****       224.5000  23.2500  25.2500 Du        
   7217 ****       224.5000  23.2500  25.5000 Du        
   7218 ****       224.5000  23.2500  25.7500 Du        
   7219 ****       224.5000  23.5000  25.2500 Du        
   7220 ****       224.5000  23.5000  25.5000 Du        
   7221 ****       224.5000  23.5000  25.7500 Du        
   7222 ****       224.5000  23.7500  24.7500 Du        
   7223 ****       224.5000  23.7500  25.0000 Du        
   7224 ****       224.5000  23.7500  25.2500 Du        
   7225 ****       224.5000  23.7500  25.5000 Du        
   7226 ****       224.5000  23.7500  25.7500 Du        
   7227 ****       224.5000  24.0000  22.7500 Du        
   7228 ****       224.5000  24.0000  23.0000 Du        
   7229 ****       224.5000  24.0000  23.2500 Du        
   7230 ****       224.5000  24.0000  23.7500 Du        
   7231 ****       224.5000  24.0000  24.0000 Du        
   7232 ****       224.5000  24.0000  24.2500 Du        
   7233 ****       224.5000  24.0000  24.5000 Du        
   7234 ****       224.5000  24.0000  24.7500 Du        
   7235 ****       224.5000  24.0000  25.0000 Du        
   7236 ****       224.5000  24.0000  25.2500 Du        
   7237 ****       224.5000  24.0000  25.5000 Du        
   7238 ****       224.5000  24.0000  25.7500 Du        
   7239 ****       224.5000  24.2500  22.7500 Du        
   7240 ****       224.5000  24.2500  23.0000 Du        
   7241 ****       224.5000  24.2500  23.2500 Du        
   7242 ****       224.5000  24.2500  23.5000 Du        
   7243 ****       224.5000  24.2500  23.7500 Du        
   7244 ****       224.5000  24.2500  24.0000 Du        
   7245 ****       224.5000  24.2500  24.2500 Du        
   7246 ****       224.5000  24.2500  24.5000 Du        
   7247 ****       224.5000  24.2500  24.7500 Du        
   7248 ****       224.5000  24.2500  25.0000 Du        
   7249 ****       224.5000  24.2500  25.2500 Du        
   7250 ****       224.5000  24.2500  25.5000 Du        
   7251 ****       224.5000  24.2500  25.7500 Du        
   7252 ****       224.5000  24.5000  22.5000 Du        
   7253 ****       224.5000  24.5000  22.7500 Du        
   7254 ****       224.5000  24.5000  23.0000 Du        
   7255 ****       224.5000  24.5000  23.2500 Du        
   7256 ****       224.5000  24.5000  23.5000 Du        
   7257 ****       224.5000  24.5000  23.7500 Du        
   7258 ****       224.5000  24.5000  24.0000 Du        
   7259 ****       224.5000  24.5000  24.2500 Du        
   7260 ****       224.5000  24.5000  24.5000 Du        
   7261 ****       224.5000  24.5000  24.7500 Du        
   7262 ****       224.5000  24.5000  25.0000 Du        
   7263 ****       224.5000  24.5000  25.2500 Du        
   7264 ****       224.5000  24.5000  25.5000 Du        
   7265 ****       224.5000  24.5000  25.7500 Du        
   7266 ****       224.5000  24.7500  22.5000 Du        
   7267 ****       224.5000  24.7500  22.7500 Du        
   7268 ****       224.5000  24.7500  23.0000 Du        
   7269 ****       224.5000  24.7500  23.2500 Du        
   7270 ****       224.5000  24.7500  23.5000 Du        
   7271 ****       224.5000  24.7500  23.7500 Du        
   7272 ****       224.5000  24.7500  24.0000 Du        
   7273 ****       224.5000  24.7500  24.2500 Du        
   7274 ****       224.5000  24.7500  24.5000 Du        
   7275 ****       224.5000  24.7500  24.7500 Du        
   7276 ****       224.5000  24.7500  25.0000 Du        
   7277 ****       224.5000  24.7500  25.2500 Du        
   7278 ****       224.5000  24.7500  25.5000 Du        
   7279 ****       224.5000  24.7500  25.7500 Du        
   7280 ****       224.5000  25.0000  22.5000 Du        
   7281 ****       224.5000  25.0000  22.7500 Du        
   7282 ****       224.5000  25.0000  23.0000 Du        
   7283 ****       224.5000  25.0000  23.2500 Du        
   7284 ****       224.5000  25.0000  23.5000 Du        
   7285 ****       224.5000  25.0000  23.7500 Du        
   7286 ****       224.5000  25.0000  24.0000 Du        
   7287 ****       224.5000  25.0000  24.2500 Du        
   7288 ****       224.5000  25.0000  24.5000 Du        
   7289 ****       224.5000  25.0000  24.7500 Du        
   7290 ****       224.5000  25.0000  25.0000 Du        
   7291 ****       224.5000  25.0000  25.2500 Du        
   7292 ****       224.5000  25.0000  25.5000 Du        
   7293 ****       224.5000  25.0000  25.7500 Du        
   7294 ****       224.5000  25.2500  22.5000 Du        
   7295 ****       224.5000  25.2500  22.7500 Du        
   7296 ****       224.5000  25.2500  23.0000 Du        
   7297 ****       224.5000  25.2500  23.2500 Du        
   7298 ****       224.5000  25.2500  23.5000 Du        
   7299 ****       224.5000  25.2500  23.7500 Du        
   7300 ****       224.5000  25.2500  24.0000 Du        
   7301 ****       224.5000  25.2500  24.2500 Du        
   7302 ****       224.5000  25.2500  24.5000 Du        
   7303 ****       224.5000  25.2500  24.7500 Du        
   7304 ****       224.5000  25.2500  25.0000 Du        
   7305 ****       224.5000  25.2500  25.2500 Du        
   7306 ****       224.5000  25.2500  25.5000 Du        
   7307 ****       224.5000  25.2500  25.7500 Du        
   7308 ****       224.5000  25.5000  22.5000 Du        
   7309 ****       224.5000  25.5000  22.7500 Du        
   7310 ****       224.5000  25.5000  23.0000 Du        
   7311 ****       224.5000  25.5000  23.2500 Du        
   7312 ****       224.5000  25.5000  23.5000 Du        
   7313 ****       224.5000  25.5000  23.7500 Du        
   7314 ****       224.5000  25.5000  24.0000 Du        
   7315 ****       224.5000  25.5000  24.2500 Du        
   7316 ****       224.5000  25.5000  24.5000 Du        
   7317 ****       224.5000  25.5000  24.7500 Du        
   7318 ****       224.5000  25.5000  25.0000 Du        
   7319 ****       224.5000  25.5000  25.2500 Du        
   7320 ****       224.5000  25.7500  22.5000 Du        
   7321 ****       224.5000  25.7500  22.7500 Du        
   7322 ****       224.5000  25.7500  23.0000 Du        
   7323 ****       224.5000  25.7500  23.2500 Du        
   7324 ****       224.5000  25.7500  23.5000 Du        
   7325 ****       224.5000  25.7500  23.7500 Du        
   7326 ****       224.5000  25.7500  24.0000 Du        
   7327 ****       224.5000  25.7500  24.2500 Du        
   7328 ****       224.5000  25.7500  24.5000 Du        
   7329 ****       224.5000  25.7500  24.7500 Du        
   7330 ****       224.5000  26.0000  22.7500 Du        
   7331 ****       224.5000  26.0000  23.0000 Du        
   7332 ****       224.5000  26.0000  23.2500 Du        
   7333 ****       224.5000  26.0000  23.5000 Du        
   7334 ****       224.5000  26.0000  23.7500 Du        
   7335 ****       224.5000  26.0000  24.0000 Du        
   7336 ****       224.5000  26.0000  24.2500 Du        
   7337 ****       224.5000  26.2500  23.0000 Du        
   7338 ****       224.5000  26.2500  23.2500 Du        
   7339 ****       224.7500   6.7500  10.0000 Du        
   7340 ****       224.7500   6.7500  10.2500 Du        
   7341 ****       224.7500   6.7500  13.0000 Du        
   7342 ****       224.7500   7.0000  10.2500 Du        
   7343 ****       224.7500   7.0000  13.0000 Du        
   7344 ****       224.7500   7.0000  13.2500 Du        
   7345 ****       224.7500   7.0000  13.5000 Du        
   7346 ****       224.7500   7.2500  10.2500 Du        
   7347 ****       224.7500   7.2500  13.2500 Du        
   7348 ****       224.7500   7.2500  13.5000 Du        
   7349 ****       224.7500   7.2500  13.7500 Du        
   7350 ****       224.7500   7.5000  10.5000 Du        
   7351 ****       224.7500   7.5000  10.7500 Du        
   7352 ****       224.7500   7.5000  12.7500 Du        
   7353 ****       224.7500   7.5000  13.2500 Du        
   7354 ****       224.7500   7.5000  13.5000 Du        
   7355 ****       224.7500   7.5000  13.7500 Du        
   7356 ****       224.7500   7.5000  14.0000 Du        
   7357 ****       224.7500   7.7500  10.5000 Du        
   7358 ****       224.7500   7.7500  10.7500 Du        
   7359 ****       224.7500   7.7500  11.0000 Du        
   7360 ****       224.7500   7.7500  12.7500 Du        
   7361 ****       224.7500   7.7500  13.0000 Du        
   7362 ****       224.7500   7.7500  13.2500 Du        
   7363 ****       224.7500   7.7500  13.5000 Du        
   7364 ****       224.7500   7.7500  13.7500 Du        
   7365 ****       224.7500   7.7500  14.0000 Du        
   7366 ****       224.7500   7.7500  14.2500 Du        
   7367 ****       224.7500   8.0000  10.7500 Du        
   7368 ****       224.7500   8.0000  11.0000 Du        
   7369 ****       224.7500   8.0000  11.2500 Du        
   7370 ****       224.7500   8.0000  11.7500 Du        
   7371 ****       224.7500   8.0000  13.0000 Du        
   7372 ****       224.7500   8.0000  13.2500 Du        
   7373 ****       224.7500   8.0000  13.5000 Du        
   7374 ****       224.7500   8.0000  13.7500 Du        
   7375 ****       224.7500   8.0000  14.0000 Du        
   7376 ****       224.7500   8.0000  14.2500 Du        
   7377 ****       224.7500   8.0000  14.5000 Du        
   7378 ****       224.7500   8.2500  11.0000 Du        
   7379 ****       224.7500   8.2500  11.2500 Du        
   7380 ****       224.7500   8.2500  12.0000 Du        
   7381 ****       224.7500   8.2500  12.7500 Du        
   7382 ****       224.7500   8.2500  13.0000 Du        
   7383 ****       224.7500   8.2500  13.2500 Du        
   7384 ****       224.7500   8.2500  13.7500 Du        
   7385 ****       224.7500   8.2500  14.0000 Du        
   7386 ****       224.7500   8.2500  14.2500 Du        
   7387 ****       224.7500   8.2500  14.5000 Du        
   7388 ****       224.7500   8.5000  13.0000 Du        
   7389 ****       224.7500   8.5000  13.5000 Du        
   7390 ****       224.7500   8.5000  13.7500 Du        
   7391 ****       224.7500   8.5000  14.0000 Du        
   7392 ****       224.7500   8.5000  14.5000 Du        
   7393 ****       224.7500   8.7500  13.0000 Du        
   7394 ****       224.7500   8.7500  13.5000 Du        
   7395 ****       224.7500   8.7500  13.7500 Du        
   7396 ****       224.7500   8.7500  14.0000 Du        
   7397 ****       224.7500   8.7500  14.2500 Du        
   7398 ****       224.7500   8.7500  14.5000 Du        
   7399 ****       224.7500   8.7500  14.7500 Du        
   7400 ****       224.7500   9.0000  13.7500 Du        
   7401 ****       224.7500   9.0000  14.0000 Du        
   7402 ****       224.7500   9.0000  14.2500 Du        
   7403 ****       224.7500   9.0000  14.5000 Du        
   7404 ****       224.7500   9.2500  13.7500 Du        
   7405 ****       224.7500   9.2500  14.0000 Du        
   7406 ****       224.7500   9.2500  14.2500 Du        
   7407 ****       224.7500  13.7500  17.2500 Du        
   7408 ****       224.7500  13.7500  17.5000 Du        
   7409 ****       224.7500  14.0000  17.2500 Du        
   7410 ****       224.7500  14.0000  17.5000 Du        
   7411 ****       224.7500  14.2500  17.5000 Du        
   7412 ****       224.7500  16.7500  17.7500 Du        
   7413 ****       224.7500  17.0000  17.7500 Du        
   7414 ****       224.7500  17.0000  18.0000 Du        
   7415 ****       224.7500  17.2500  17.5000 Du        
   7416 ****       224.7500  17.2500  17.7500 Du        
   7417 ****       224.7500  17.2500  18.0000 Du        
   7418 ****       224.7500  17.5000  17.7500 Du        
   7419 ****       224.7500  17.5000  18.0000 Du        
   7420 ****       224.7500  19.7500  13.7500 Du        
   7421 ****       224.7500  19.7500  14.0000 Du        
   7422 ****       224.7500  19.7500  14.2500 Du        
   7423 ****       224.7500  20.0000  13.5000 Du        
   7424 ****       224.7500  20.0000  13.7500 Du        
   7425 ****       224.7500  20.0000  14.0000 Du        
   7426 ****       224.7500  20.0000  14.2500 Du        
   7427 ****       224.7500  20.0000  14.5000 Du        
   7428 ****       224.7500  20.2500  13.5000 Du        
   7429 ****       224.7500  20.2500  13.7500 Du        
   7430 ****       224.7500  20.2500  14.0000 Du        
   7431 ****       224.7500  20.2500  14.2500 Du        
   7432 ****       224.7500  20.2500  14.5000 Du        
   7433 ****       224.7500  20.2500  14.7500 Du        
   7434 ****       224.7500  20.5000  13.2500 Du        
   7435 ****       224.7500  20.5000  13.5000 Du        
   7436 ****       224.7500  20.5000  13.7500 Du        
   7437 ****       224.7500  20.5000  14.0000 Du        
   7438 ****       224.7500  20.5000  14.2500 Du        
   7439 ****       224.7500  20.5000  14.5000 Du        
   7440 ****       224.7500  20.5000  14.7500 Du        
   7441 ****       224.7500  20.5000  15.0000 Du        
   7442 ****       224.7500  20.7500  13.2500 Du        
   7443 ****       224.7500  20.7500  13.5000 Du        
   7444 ****       224.7500  20.7500  13.7500 Du        
   7445 ****       224.7500  20.7500  14.0000 Du        
   7446 ****       224.7500  20.7500  14.2500 Du        
   7447 ****       224.7500  20.7500  14.5000 Du        
   7448 ****       224.7500  20.7500  14.7500 Du        
   7449 ****       224.7500  20.7500  15.0000 Du        
   7450 ****       224.7500  21.0000  13.2500 Du        
   7451 ****       224.7500  21.0000  13.5000 Du        
   7452 ****       224.7500  21.0000  13.7500 Du        
   7453 ****       224.7500  21.0000  14.0000 Du        
   7454 ****       224.7500  21.0000  14.2500 Du        
   7455 ****       224.7500  21.0000  14.5000 Du        
   7456 ****       224.7500  21.0000  14.7500 Du        
   7457 ****       224.7500  21.0000  15.0000 Du        
   7458 ****       224.7500  21.2500  14.0000 Du        
   7459 ****       224.7500  21.2500  14.2500 Du        
   7460 ****       224.7500  21.2500  14.5000 Du        
   7461 ****       224.7500  21.2500  14.7500 Du        
   7462 ****       224.7500  21.2500  15.0000 Du        
   7463 ****       224.7500  21.5000  14.7500 Du        
   7464 ****       224.7500  21.5000  15.0000 Du        
   7465 ****       224.7500  22.7500  25.7500 Du        
   7466 ****       224.7500  23.0000  25.7500 Du        
   7467 ****       224.7500  23.2500  25.5000 Du        
   7468 ****       224.7500  23.2500  25.7500 Du        
   7469 ****       224.7500  23.5000  25.5000 Du        
   7470 ****       224.7500  23.5000  25.7500 Du        
   7471 ****       224.7500  23.7500  25.0000 Du        
   7472 ****       224.7500  23.7500  25.2500 Du        
   7473 ****       224.7500  23.7500  25.5000 Du        
   7474 ****       224.7500  23.7500  25.7500 Du        
   7475 ****       224.7500  24.0000  24.7500 Du        
   7476 ****       224.7500  24.0000  25.0000 Du        
   7477 ****       224.7500  24.0000  25.2500 Du        
   7478 ****       224.7500  24.0000  25.5000 Du        
   7479 ****       224.7500  24.0000  25.7500 Du        
   7480 ****       224.7500  24.2500  23.0000 Du        
   7481 ****       224.7500  24.2500  23.2500 Du        
   7482 ****       224.7500  24.2500  23.5000 Du        
   7483 ****       224.7500  24.2500  23.7500 Du        
   7484 ****       224.7500  24.2500  24.0000 Du        
   7485 ****       224.7500  24.2500  24.2500 Du        
   7486 ****       224.7500  24.2500  24.5000 Du        
   7487 ****       224.7500  24.2500  24.7500 Du        
   7488 ****       224.7500  24.2500  25.0000 Du        
   7489 ****       224.7500  24.2500  25.2500 Du        
   7490 ****       224.7500  24.2500  25.5000 Du        
   7491 ****       224.7500  24.2500  25.7500 Du        
   7492 ****       224.7500  24.5000  22.7500 Du        
   7493 ****       224.7500  24.5000  23.0000 Du        
   7494 ****       224.7500  24.5000  23.2500 Du        
   7495 ****       224.7500  24.5000  23.5000 Du        
   7496 ****       224.7500  24.5000  23.7500 Du        
   7497 ****       224.7500  24.5000  24.0000 Du        
   7498 ****       224.7500  24.5000  24.2500 Du        
   7499 ****       224.7500  24.5000  24.5000 Du        
   7500 ****       224.7500  24.5000  24.7500 Du        
   7501 ****       224.7500  24.5000  25.0000 Du        
   7502 ****       224.7500  24.5000  25.2500 Du        
   7503 ****       224.7500  24.5000  25.5000 Du        
   7504 ****       224.7500  24.5000  25.7500 Du        
   7505 ****       224.7500  24.7500  22.7500 Du        
   7506 ****       224.7500  24.7500  23.0000 Du        
   7507 ****       224.7500  24.7500  23.2500 Du        
   7508 ****       224.7500  24.7500  23.5000 Du        
   7509 ****       224.7500  24.7500  23.7500 Du        
   7510 ****       224.7500  24.7500  24.0000 Du        
   7511 ****       224.7500  24.7500  24.2500 Du        
   7512 ****       224.7500  24.7500  24.5000 Du        
   7513 ****       224.7500  24.7500  24.7500 Du        
   7514 ****       224.7500  24.7500  25.0000 Du        
   7515 ****       224.7500  24.7500  25.2500 Du        
   7516 ****       224.7500  24.7500  25.5000 Du        
   7517 ****       224.7500  24.7500  25.7500 Du        
   7518 ****       224.7500  25.0000  22.7500 Du        
   7519 ****       224.7500  25.0000  23.0000 Du        
   7520 ****       224.7500  25.0000  23.2500 Du        
   7521 ****       224.7500  25.0000  23.5000 Du        
   7522 ****       224.7500  25.0000  23.7500 Du        
   7523 ****       224.7500  25.0000  24.0000 Du        
   7524 ****       224.7500  25.0000  24.2500 Du        
   7525 ****       224.7500  25.0000  24.5000 Du        
   7526 ****       224.7500  25.0000  24.7500 Du        
   7527 ****       224.7500  25.0000  25.0000 Du        
   7528 ****       224.7500  25.0000  25.2500 Du        
   7529 ****       224.7500  25.0000  25.5000 Du        
   7530 ****       224.7500  25.0000  25.7500 Du        
   7531 ****       224.7500  25.2500  22.5000 Du        
   7532 ****       224.7500  25.2500  22.7500 Du        
   7533 ****       224.7500  25.2500  23.0000 Du        
   7534 ****       224.7500  25.2500  23.2500 Du        
   7535 ****       224.7500  25.2500  23.5000 Du        
   7536 ****       224.7500  25.2500  23.7500 Du        
   7537 ****       224.7500  25.2500  24.0000 Du        
   7538 ****       224.7500  25.2500  24.2500 Du        
   7539 ****       224.7500  25.2500  24.5000 Du        
   7540 ****       224.7500  25.2500  24.7500 Du        
   7541 ****       224.7500  25.2500  25.0000 Du        
   7542 ****       224.7500  25.2500  25.2500 Du        
   7543 ****       224.7500  25.5000  22.5000 Du        
   7544 ****       224.7500  25.5000  22.7500 Du        
   7545 ****       224.7500  25.5000  23.0000 Du        
   7546 ****       224.7500  25.5000  23.2500 Du        
   7547 ****       224.7500  25.5000  23.5000 Du        
   7548 ****       224.7500  25.5000  23.7500 Du        
   7549 ****       224.7500  25.5000  24.0000 Du        
   7550 ****       224.7500  25.5000  24.2500 Du        
   7551 ****       224.7500  25.5000  24.5000 Du        
   7552 ****       224.7500  25.5000  24.7500 Du        
   7553 ****       224.7500  25.7500  22.5000 Du        
   7554 ****       224.7500  25.7500  22.7500 Du        
   7555 ****       224.7500  25.7500  23.0000 Du        
   7556 ****       224.7500  25.7500  23.2500 Du        
   7557 ****       224.7500  25.7500  23.5000 Du        
   7558 ****       224.7500  25.7500  23.7500 Du        
   7559 ****       224.7500  25.7500  24.0000 Du        
   7560 ****       224.7500  25.7500  24.2500 Du        
   7561 ****       224.7500  26.0000  22.7500 Du        
   7562 ****       224.7500  26.0000  23.0000 Du        
   7563 ****       224.7500  26.0000  23.2500 Du        
   7564 ****       224.7500  26.0000  23.5000 Du        
   7565 ****       224.7500  26.0000  23.7500 Du        
   7566 ****       225.0000   6.2500  13.0000 Du        
   7567 ****       225.0000   6.5000  13.0000 Du        
   7568 ****       225.0000   6.5000  13.2500 Du        
   7569 ****       225.0000   6.7500  13.0000 Du        
   7570 ****       225.0000   6.7500  13.2500 Du        
   7571 ****       225.0000   6.7500  13.5000 Du        
   7572 ****       225.0000   6.7500  13.7500 Du        
   7573 ****       225.0000   7.0000  13.0000 Du        
   7574 ****       225.0000   7.0000  13.2500 Du        
   7575 ****       225.0000   7.0000  13.5000 Du        
   7576 ****       225.0000   7.0000  13.7500 Du        
   7577 ****       225.0000   7.2500  13.2500 Du        
   7578 ****       225.0000   7.2500  13.5000 Du        
   7579 ****       225.0000   7.2500  13.7500 Du        
   7580 ****       225.0000   7.2500  14.0000 Du        
   7581 ****       225.0000   7.5000  10.7500 Du        
   7582 ****       225.0000   7.5000  12.7500 Du        
   7583 ****       225.0000   7.5000  13.0000 Du        
   7584 ****       225.0000   7.5000  13.2500 Du        
   7585 ****       225.0000   7.5000  13.5000 Du        
   7586 ****       225.0000   7.5000  13.7500 Du        
   7587 ****       225.0000   7.5000  14.0000 Du        
   7588 ****       225.0000   7.7500  10.5000 Du        
   7589 ****       225.0000   7.7500  10.7500 Du        
   7590 ****       225.0000   7.7500  11.0000 Du        
   7591 ****       225.0000   7.7500  12.7500 Du        
   7592 ****       225.0000   7.7500  13.0000 Du        
   7593 ****       225.0000   7.7500  13.2500 Du        
   7594 ****       225.0000   7.7500  13.5000 Du        
   7595 ****       225.0000   7.7500  13.7500 Du        
   7596 ****       225.0000   7.7500  14.0000 Du        
   7597 ****       225.0000   8.0000  10.7500 Du        
   7598 ****       225.0000   8.0000  11.0000 Du        
   7599 ****       225.0000   8.0000  11.2500 Du        
   7600 ****       225.0000   8.0000  12.2500 Du        
   7601 ****       225.0000   8.0000  12.7500 Du        
   7602 ****       225.0000   8.0000  13.0000 Du        
   7603 ****       225.0000   8.0000  13.2500 Du        
   7604 ****       225.0000   8.0000  13.5000 Du        
   7605 ****       225.0000   8.0000  13.7500 Du        
   7606 ****       225.0000   8.0000  14.0000 Du        
   7607 ****       225.0000   8.0000  14.2500 Du        
   7608 ****       225.0000   8.2500  10.7500 Du        
   7609 ****       225.0000   8.2500  11.0000 Du        
   7610 ****       225.0000   8.2500  11.2500 Du        
   7611 ****       225.0000   8.2500  11.7500 Du        
   7612 ****       225.0000   8.2500  12.2500 Du        
   7613 ****       225.0000   8.2500  12.7500 Du        
   7614 ****       225.0000   8.2500  13.0000 Du        
   7615 ****       225.0000   8.2500  13.2500 Du        
   7616 ****       225.0000   8.2500  13.7500 Du        
   7617 ****       225.0000   8.2500  14.0000 Du        
   7618 ****       225.0000   8.2500  14.2500 Du        
   7619 ****       225.0000   8.5000  11.7500 Du        
   7620 ****       225.0000   8.5000  12.7500 Du        
   7621 ****       225.0000   8.5000  13.0000 Du        
   7622 ****       225.0000   8.5000  13.2500 Du        
   7623 ****       225.0000   8.5000  13.5000 Du        
   7624 ****       225.0000   8.5000  13.7500 Du        
   7625 ****       225.0000   8.5000  14.0000 Du        
   7626 ****       225.0000   8.7500  12.0000 Du        
   7627 ****       225.0000   8.7500  12.2500 Du        
   7628 ****       225.0000   8.7500  12.7500 Du        
   7629 ****       225.0000   8.7500  13.0000 Du        
   7630 ****       225.0000   8.7500  13.2500 Du        
   7631 ****       225.0000   8.7500  13.5000 Du        
   7632 ****       225.0000   8.7500  13.7500 Du        
   7633 ****       225.0000   8.7500  14.0000 Du        
   7634 ****       225.0000   9.0000  12.0000 Du        
   7635 ****       225.0000   9.0000  12.2500 Du        
   7636 ****       225.0000   9.0000  12.7500 Du        
   7637 ****       225.0000   9.0000  13.0000 Du        
   7638 ****       225.0000   9.0000  13.2500 Du        
   7639 ****       225.0000   9.0000  13.5000 Du        
   7640 ****       225.0000   9.0000  13.7500 Du        
   7641 ****       225.0000   9.0000  14.0000 Du        
   7642 ****       225.0000   9.0000  14.2500 Du        
   7643 ****       225.0000   9.2500  12.2500 Du        
   7644 ****       225.0000   9.2500  13.0000 Du        
   7645 ****       225.0000   9.2500  13.2500 Du        
   7646 ****       225.0000   9.2500  13.5000 Du        
   7647 ****       225.0000   9.2500  13.7500 Du        
   7648 ****       225.0000   9.2500  14.0000 Du        
   7649 ****       225.0000   9.2500  14.2500 Du        
   7650 ****       225.0000  13.7500  17.2500 Du        
   7651 ****       225.0000  19.7500  13.7500 Du        
   7652 ****       225.0000  19.7500  14.0000 Du        
   7653 ****       225.0000  19.7500  14.2500 Du        
   7654 ****       225.0000  20.0000  13.7500 Du        
   7655 ****       225.0000  20.0000  14.0000 Du        
   7656 ****       225.0000  20.0000  14.2500 Du        
   7657 ****       225.0000  20.0000  14.5000 Du        
   7658 ****       225.0000  20.2500  13.5000 Du        
   7659 ****       225.0000  20.2500  13.7500 Du        
   7660 ****       225.0000  20.2500  14.0000 Du        
   7661 ****       225.0000  20.2500  14.2500 Du        
   7662 ****       225.0000  20.2500  14.5000 Du        
   7663 ****       225.0000  20.2500  14.7500 Du        
   7664 ****       225.0000  20.5000  13.2500 Du        
   7665 ****       225.0000  20.5000  13.5000 Du        
   7666 ****       225.0000  20.5000  13.7500 Du        
   7667 ****       225.0000  20.5000  14.0000 Du        
   7668 ****       225.0000  20.5000  14.2500 Du        
   7669 ****       225.0000  20.5000  14.5000 Du        
   7670 ****       225.0000  20.5000  14.7500 Du        
   7671 ****       225.0000  20.5000  15.0000 Du        
   7672 ****       225.0000  20.7500  13.2500 Du        
   7673 ****       225.0000  20.7500  13.5000 Du        
   7674 ****       225.0000  20.7500  13.7500 Du        
   7675 ****       225.0000  20.7500  14.0000 Du        
   7676 ****       225.0000  20.7500  14.2500 Du        
   7677 ****       225.0000  20.7500  14.5000 Du        
   7678 ****       225.0000  20.7500  14.7500 Du        
   7679 ****       225.0000  20.7500  15.0000 Du        
   7680 ****       225.0000  21.0000  13.2500 Du        
   7681 ****       225.0000  21.0000  13.5000 Du        
   7682 ****       225.0000  21.0000  13.7500 Du        
   7683 ****       225.0000  21.0000  14.0000 Du        
   7684 ****       225.0000  21.0000  14.2500 Du        
   7685 ****       225.0000  21.0000  14.5000 Du        
   7686 ****       225.0000  21.0000  14.7500 Du        
   7687 ****       225.0000  21.0000  15.0000 Du        
   7688 ****       225.0000  21.2500  14.0000 Du        
   7689 ****       225.0000  21.2500  14.2500 Du        
   7690 ****       225.0000  21.2500  14.5000 Du        
   7691 ****       225.0000  21.2500  14.7500 Du        
   7692 ****       225.0000  21.2500  15.0000 Du        
   7693 ****       225.0000  21.5000  14.5000 Du        
   7694 ****       225.0000  21.5000  14.7500 Du        
   7695 ****       225.0000  21.5000  15.0000 Du        
   7696 ****       225.0000  23.2500  25.7500 Du        
   7697 ****       225.0000  23.5000  25.7500 Du        
   7698 ****       225.0000  23.7500  25.5000 Du        
   7699 ****       225.0000  23.7500  25.7500 Du        
   7700 ****       225.0000  24.0000  25.0000 Du        
   7701 ****       225.0000  24.0000  25.2500 Du        
   7702 ****       225.0000  24.0000  25.5000 Du        
   7703 ****       225.0000  24.0000  25.7500 Du        
   7704 ****       225.0000  24.2500  24.7500 Du        
   7705 ****       225.0000  24.2500  25.0000 Du        
   7706 ****       225.0000  24.2500  25.2500 Du        
   7707 ****       225.0000  24.2500  25.5000 Du        
   7708 ****       225.0000  24.2500  25.7500 Du        
   7709 ****       225.0000  24.5000  23.2500 Du        
   7710 ****       225.0000  24.5000  23.7500 Du        
   7711 ****       225.0000  24.5000  24.0000 Du        
   7712 ****       225.0000  24.5000  24.2500 Du        
   7713 ****       225.0000  24.5000  24.5000 Du        
   7714 ****       225.0000  24.5000  24.7500 Du        
   7715 ****       225.0000  24.5000  25.0000 Du        
   7716 ****       225.0000  24.5000  25.2500 Du        
   7717 ****       225.0000  24.5000  25.5000 Du        
   7718 ****       225.0000  24.5000  25.7500 Du        
   7719 ****       225.0000  24.7500  23.0000 Du        
   7720 ****       225.0000  24.7500  23.2500 Du        
   7721 ****       225.0000  24.7500  23.5000 Du        
   7722 ****       225.0000  24.7500  23.7500 Du        
   7723 ****       225.0000  24.7500  24.0000 Du        
   7724 ****       225.0000  24.7500  24.2500 Du        
   7725 ****       225.0000  24.7500  24.5000 Du        
   7726 ****       225.0000  24.7500  24.7500 Du        
   7727 ****       225.0000  24.7500  25.0000 Du        
   7728 ****       225.0000  24.7500  25.2500 Du        
   7729 ****       225.0000  24.7500  25.5000 Du        
   7730 ****       225.0000  25.0000  22.7500 Du        
   7731 ****       225.0000  25.0000  23.0000 Du        
   7732 ****       225.0000  25.0000  23.2500 Du        
   7733 ****       225.0000  25.0000  23.5000 Du        
   7734 ****       225.0000  25.0000  23.7500 Du        
   7735 ****       225.0000  25.0000  24.0000 Du        
   7736 ****       225.0000  25.0000  24.2500 Du        
   7737 ****       225.0000  25.0000  24.5000 Du        
   7738 ****       225.0000  25.0000  24.7500 Du        
   7739 ****       225.0000  25.0000  25.0000 Du        
   7740 ****       225.0000  25.0000  25.2500 Du        
   7741 ****       225.0000  25.2500  22.7500 Du        
   7742 ****       225.0000  25.2500  23.0000 Du        
   7743 ****       225.0000  25.2500  23.2500 Du        
   7744 ****       225.0000  25.2500  23.5000 Du        
   7745 ****       225.0000  25.2500  23.7500 Du        
   7746 ****       225.0000  25.2500  24.0000 Du        
   7747 ****       225.0000  25.2500  24.2500 Du        
   7748 ****       225.0000  25.2500  24.5000 Du        
   7749 ****       225.0000  25.2500  24.7500 Du        
   7750 ****       225.0000  25.5000  22.7500 Du        
   7751 ****       225.0000  25.5000  23.0000 Du        
   7752 ****       225.0000  25.5000  23.2500 Du        
   7753 ****       225.0000  25.5000  23.5000 Du        
   7754 ****       225.0000  25.5000  23.7500 Du        
   7755 ****       225.0000  25.5000  24.0000 Du        
   7756 ****       225.0000  25.5000  24.2500 Du        
   7757 ****       225.0000  25.7500  22.7500 Du        
   7758 ****       225.0000  25.7500  23.0000 Du        
   7759 ****       225.0000  25.7500  23.2500 Du        
   7760 ****       225.0000  25.7500  23.5000 Du        
   7761 ****       225.0000  25.7500  23.7500 Du        
   7762 ****       225.0000  26.0000  23.0000 Du        
   7763 ****       225.0000  26.0000  23.2500 Du        
   7764 ****       225.2500   6.2500  13.0000 Du        
   7765 ****       225.2500   6.2500  13.2500 Du        
   7766 ****       225.2500   6.2500  13.5000 Du        
   7767 ****       225.2500   6.5000  13.0000 Du        
   7768 ****       225.2500   6.5000  13.2500 Du        
   7769 ****       225.2500   6.5000  13.5000 Du        
   7770 ****       225.2500   6.5000  13.7500 Du        
   7771 ****       225.2500   6.7500  13.0000 Du        
   7772 ****       225.2500   6.7500  13.2500 Du        
   7773 ****       225.2500   6.7500  13.5000 Du        
   7774 ****       225.2500   6.7500  13.7500 Du        
   7775 ****       225.2500   7.0000  13.0000 Du        
   7776 ****       225.2500   7.0000  13.2500 Du        
   7777 ****       225.2500   7.0000  13.5000 Du        
   7778 ****       225.2500   7.0000  13.7500 Du        
   7779 ****       225.2500   7.0000  14.0000 Du        
   7780 ****       225.2500   7.2500  13.2500 Du        
   7781 ****       225.2500   7.2500  13.5000 Du        
   7782 ****       225.2500   7.2500  13.7500 Du        
   7783 ****       225.2500   7.2500  14.0000 Du        
   7784 ****       225.2500   7.5000  13.2500 Du        
   7785 ****       225.2500   7.5000  13.5000 Du        
   7786 ****       225.2500   7.5000  13.7500 Du        
   7787 ****       225.2500   7.7500  13.0000 Du        
   7788 ****       225.2500   7.7500  13.2500 Du        
   7789 ****       225.2500   7.7500  13.5000 Du        
   7790 ****       225.2500   7.7500  13.7500 Du        
   7791 ****       225.2500   7.7500  14.0000 Du        
   7792 ****       225.2500   8.0000  11.0000 Du        
   7793 ****       225.2500   8.0000  13.0000 Du        
   7794 ****       225.2500   8.0000  13.2500 Du        
   7795 ****       225.2500   8.0000  13.7500 Du        
   7796 ****       225.2500   8.0000  14.0000 Du        
   7797 ****       225.2500   8.2500  11.0000 Du        
   7798 ****       225.2500   8.2500  11.2500 Du        
   7799 ****       225.2500   8.2500  13.0000 Du        
   7800 ****       225.2500   8.2500  13.2500 Du        
   7801 ****       225.2500   8.2500  14.0000 Du        
   7802 ****       225.2500   8.5000  11.0000 Du        
   7803 ****       225.2500   8.5000  12.7500 Du        
   7804 ****       225.2500   8.5000  13.0000 Du        
   7805 ****       225.2500   8.5000  13.2500 Du        
   7806 ****       225.2500   8.5000  13.5000 Du        
   7807 ****       225.2500   8.5000  13.7500 Du        
   7808 ****       225.2500   8.7500  12.5000 Du        
   7809 ****       225.2500   8.7500  12.7500 Du        
   7810 ****       225.2500   8.7500  13.0000 Du        
   7811 ****       225.2500   8.7500  13.2500 Du        
   7812 ****       225.2500   8.7500  13.5000 Du        
   7813 ****       225.2500   8.7500  13.7500 Du        
   7814 ****       225.2500   8.7500  14.0000 Du        
   7815 ****       225.2500   9.0000  12.0000 Du        
   7816 ****       225.2500   9.0000  12.2500 Du        
   7817 ****       225.2500   9.0000  12.7500 Du        
   7818 ****       225.2500   9.0000  13.0000 Du        
   7819 ****       225.2500   9.0000  13.2500 Du        
   7820 ****       225.2500   9.0000  13.5000 Du        
   7821 ****       225.2500   9.0000  13.7500 Du        
   7822 ****       225.2500   9.0000  14.0000 Du        
   7823 ****       225.2500   9.0000  14.2500 Du        
   7824 ****       225.2500   9.2500  12.2500 Du        
   7825 ****       225.2500   9.2500  12.7500 Du        
   7826 ****       225.2500   9.2500  13.0000 Du        
   7827 ****       225.2500   9.2500  13.2500 Du        
   7828 ****       225.2500   9.2500  13.5000 Du        
   7829 ****       225.2500   9.2500  13.7500 Du        
   7830 ****       225.2500   9.2500  14.0000 Du        
   7831 ****       225.2500   9.2500  14.2500 Du        
   7832 ****       225.2500  13.2500  17.2500 Du        
   7833 ****       225.2500  19.7500  14.0000 Du        
   7834 ****       225.2500  20.0000  13.7500 Du        
   7835 ****       225.2500  20.0000  14.0000 Du        
   7836 ****       225.2500  20.0000  14.5000 Du        
   7837 ****       225.2500  20.2500  13.5000 Du        
   7838 ****       225.2500  20.2500  13.7500 Du        
   7839 ****       225.2500  20.2500  14.0000 Du        
   7840 ****       225.2500  20.2500  14.2500 Du        
   7841 ****       225.2500  20.2500  14.5000 Du        
   7842 ****       225.2500  20.5000  13.7500 Du        
   7843 ****       225.2500  20.5000  14.0000 Du        
   7844 ****       225.2500  20.5000  14.2500 Du        
   7845 ****       225.2500  20.5000  14.5000 Du        
   7846 ****       225.2500  20.5000  14.7500 Du        
   7847 ****       225.2500  20.5000  15.0000 Du        
   7848 ****       225.2500  20.7500  13.5000 Du        
   7849 ****       225.2500  20.7500  13.7500 Du        
   7850 ****       225.2500  20.7500  14.0000 Du        
   7851 ****       225.2500  20.7500  14.2500 Du        
   7852 ****       225.2500  20.7500  14.5000 Du        
   7853 ****       225.2500  20.7500  14.7500 Du        
   7854 ****       225.2500  20.7500  15.0000 Du        
   7855 ****       225.2500  21.0000  13.7500 Du        
   7856 ****       225.2500  21.0000  14.0000 Du        
   7857 ****       225.2500  21.0000  14.2500 Du        
   7858 ****       225.2500  21.0000  14.5000 Du        
   7859 ****       225.2500  21.0000  14.7500 Du        
   7860 ****       225.2500  21.0000  15.0000 Du        
   7861 ****       225.2500  21.2500  14.0000 Du        
   7862 ****       225.2500  21.2500  14.2500 Du        
   7863 ****       225.2500  21.2500  14.5000 Du        
   7864 ****       225.2500  21.2500  14.7500 Du        
   7865 ****       225.2500  21.2500  15.0000 Du        
   7866 ****       225.2500  21.5000  14.5000 Du        
   7867 ****       225.2500  21.5000  14.7500 Du        
   7868 ****       225.2500  21.5000  15.0000 Du        
   7869 ****       225.2500  24.7500  24.0000 Du        
   7870 ****       225.2500  24.7500  24.2500 Du        
   7871 ****       225.2500  24.7500  24.5000 Du        
   7872 ****       225.2500  24.7500  24.7500 Du        
   7873 ****       225.2500  24.7500  25.0000 Du        
   7874 ****       225.2500  25.0000  23.2500 Du        
   7875 ****       225.2500  25.0000  23.5000 Du        
   7876 ****       225.2500  25.0000  23.7500 Du        
   7877 ****       225.2500  25.0000  24.0000 Du        
   7878 ****       225.2500  25.0000  24.2500 Du        
   7879 ****       225.2500  25.0000  24.5000 Du        
   7880 ****       225.2500  25.2500  23.0000 Du        
   7881 ****       225.2500  25.2500  23.2500 Du        
   7882 ****       225.2500  25.2500  23.5000 Du        
   7883 ****       225.2500  25.2500  23.7500 Du        
   7884 ****       225.2500  25.2500  24.0000 Du        
   7885 ****       225.2500  25.5000  22.7500 Du        
   7886 ****       225.2500  25.5000  23.0000 Du        
   7887 ****       225.2500  25.5000  23.2500 Du        
   7888 ****       225.2500  25.5000  23.5000 Du        
   7889 ****       225.2500  25.7500  23.0000 Du        
   7890 ****       225.2500  25.7500  23.2500 Du        
   7891 ****       225.5000   6.2500  13.0000 Du        
   7892 ****       225.5000   6.2500  13.2500 Du        
   7893 ****       225.5000   6.2500  13.5000 Du        
   7894 ****       225.5000   6.2500  13.7500 Du        
   7895 ****       225.5000   6.5000  13.2500 Du        
   7896 ****       225.5000   6.5000  13.5000 Du        
   7897 ****       225.5000   6.5000  13.7500 Du        
   7898 ****       225.5000   6.7500  13.2500 Du        
   7899 ****       225.5000   6.7500  13.5000 Du        
   7900 ****       225.5000   6.7500  13.7500 Du        
   7901 ****       225.5000   6.7500  14.0000 Du        
   7902 ****       225.5000   7.0000  13.2500 Du        
   7903 ****       225.5000   7.0000  13.5000 Du        
   7904 ****       225.5000   7.0000  13.7500 Du        
   7905 ****       225.5000   7.0000  14.0000 Du        
   7906 ****       225.5000   7.2500  13.5000 Du        
   7907 ****       225.5000   7.2500  13.7500 Du        
   7908 ****       225.5000   7.5000  13.5000 Du        
   7909 ****       225.5000   7.5000  13.7500 Du        
   7910 ****       225.5000   7.7500  13.5000 Du        
   7911 ****       225.5000   7.7500  13.7500 Du        
   7912 ****       225.5000   8.0000  13.7500 Du        
   7913 ****       225.5000   8.5000  13.0000 Du        
   7914 ****       225.5000   8.5000  13.2500 Du        
   7915 ****       225.5000   8.5000  13.5000 Du        
   7916 ****       225.5000   8.5000  13.7500 Du        
   7917 ****       225.5000   8.7500  11.0000 Du        
   7918 ****       225.5000   8.7500  11.2500 Du        
   7919 ****       225.5000   8.7500  12.7500 Du        
   7920 ****       225.5000   8.7500  13.0000 Du        
   7921 ****       225.5000   8.7500  13.2500 Du        
   7922 ****       225.5000   8.7500  13.5000 Du        
   7923 ****       225.5000   8.7500  13.7500 Du        
   7924 ****       225.5000   9.0000  11.2500 Du        
   7925 ****       225.5000   9.0000  11.7500 Du        
   7926 ****       225.5000   9.0000  12.7500 Du        
   7927 ****       225.5000   9.0000  13.0000 Du        
   7928 ****       225.5000   9.0000  13.2500 Du        
   7929 ****       225.5000   9.0000  13.5000 Du        
   7930 ****       225.5000   9.0000  13.7500 Du        
   7931 ****       225.5000   9.0000  14.0000 Du        
   7932 ****       225.5000   9.2500  11.7500 Du        
   7933 ****       225.5000   9.2500  12.0000 Du        
   7934 ****       225.5000   9.2500  12.2500 Du        
   7935 ****       225.5000   9.2500  12.7500 Du        
   7936 ****       225.5000   9.2500  13.0000 Du        
   7937 ****       225.5000   9.2500  13.2500 Du        
   7938 ****       225.5000   9.2500  13.5000 Du        
   7939 ****       225.5000   9.2500  13.7500 Du        
   7940 ****       225.5000   9.2500  14.0000 Du        
   7941 ****       225.5000   9.5000  12.0000 Du        
   7942 ****       225.5000   9.5000  12.2500 Du        
   7943 ****       225.5000   9.5000  13.5000 Du        
   7944 ****       225.5000   9.5000  13.7500 Du        
   7945 ****       225.5000   9.5000  14.0000 Du        
   7946 ****       225.5000   9.7500  12.2500 Du        
   7947 ****       225.5000   9.7500  13.7500 Du        
   7948 ****       225.5000   9.7500  14.0000 Du        
   7949 ****       225.5000   9.7500  14.2500 Du        
   7950 ****       225.5000  20.7500  14.0000 Du        
   7951 ****       225.5000  20.7500  14.2500 Du        
   7952 ****       225.5000  20.7500  14.5000 Du        
   7953 ****       225.5000  20.7500  14.7500 Du        
   7954 ****       225.5000  20.7500  15.0000 Du        
   7955 ****       225.5000  21.0000  14.2500 Du        
   7956 ****       225.5000  21.0000  14.5000 Du        
   7957 ****       225.5000  21.0000  14.7500 Du        
   7958 ****       225.5000  21.0000  15.0000 Du        
   7959 ****       225.5000  21.2500  14.5000 Du        
   7960 ****       225.5000  21.2500  14.7500 Du        
   7961 ****       225.5000  21.2500  15.0000 Du        
   7962 ****       225.5000  21.5000  14.7500 Du        
   7963 ****       225.7500   6.2500  13.2500 Du        
   7964 ****       225.7500   6.2500  13.5000 Du        
   7965 ****       225.7500   6.2500  13.7500 Du        
   7966 ****       225.7500   6.5000  13.5000 Du        
   7967 ****       225.7500   6.5000  13.7500 Du        
   7968 ****       225.7500   6.7500  13.5000 Du        
   7969 ****       225.7500   6.7500  13.7500 Du        
   7970 ****       225.7500   7.0000  13.5000 Du        
   7971 ****       225.7500   7.0000  13.7500 Du        
   7972 ****       225.7500   7.2500  13.5000 Du        
   7973 ****       225.7500   9.0000  13.5000 Du        
   7974 ****       225.7500   9.0000  13.7500 Du        
   7975 ****       225.7500   9.2500  13.2500 Du        
   7976 ****       225.7500   9.2500  13.7500 Du        
   7977 ****       225.7500   9.2500  14.0000 Du        
   7978 ****       225.7500   9.5000  13.7500 Du        
   7979 ****       225.7500   9.5000  14.0000 Du        
   7980 ****       225.7500   9.7500  13.7500 Du        
   7981 ****       225.7500   9.7500  14.0000 Du        
   7982 ****       225.7500   9.7500  14.2500 Du        
   7983 ****       225.7500  10.0000  12.2500 Du        
   7984 ****       225.7500  10.0000  13.7500 Du        
   7985 ****       225.7500  10.0000  14.0000 Du        
   7986 ****       225.7500  10.0000  14.2500 Du        
   7987 ****       225.7500  10.2500  12.2500 Du        
   7988 ****       225.7500  10.2500  13.7500 Du        
   7989 ****       225.7500  10.2500  14.0000 Du        
   7990 ****       225.7500  13.0000  16.7500 Du        
   7991 ****       225.7500  13.0000  17.0000 Du        
   7992 ****       225.7500  13.2500  17.0000 Du        
   7993 ****       225.7500  20.7500  14.0000 Du        
   7994 ****       225.7500  20.7500  14.2500 Du        
   7995 ****       225.7500  20.7500  14.5000 Du        
   7996 ****       225.7500  20.7500  14.7500 Du        
   7997 ****       225.7500  20.7500  15.0000 Du        
   7998 ****       225.7500  21.0000  14.0000 Du        
   7999 ****       225.7500  21.0000  14.2500 Du        
   8000 ****       225.7500  21.0000  14.5000 Du        
   8001 ****       225.7500  21.0000  14.7500 Du        
   8002 ****       225.7500  21.0000  15.0000 Du        
   8003 ****       225.7500  21.2500  14.5000 Du        
   8004 ****       225.7500  21.2500  14.7500 Du        
   8005 ****       225.7500  21.2500  15.0000 Du        
   8006 ****       225.7500  21.5000  14.5000 Du        
   8007 ****       225.7500  21.5000  14.7500 Du        
   8008 ****       225.7500  21.5000  15.0000 Du        
   8009 ****       226.0000   9.7500  13.7500 Du        
   8010 ****       226.0000   9.7500  14.0000 Du        
   8011 ****       226.0000   9.7500  14.2500 Du        
   8012 ****       226.0000  10.0000  13.7500 Du        
   8013 ****       226.0000  10.0000  14.0000 Du        
   8014 ****       226.0000  10.0000  14.2500 Du        
   8015 ****       226.0000  10.2500  14.0000 Du        
   8016 ****       226.0000  10.2500  14.2500 Du        
   8017 ****       226.0000  10.7500  12.7500 Du        
   8018 ****       226.0000  11.0000  12.7500 Du        
   8019 ****       226.0000  13.0000  16.7500 Du        
   8020 ****       226.0000  13.0000  17.0000 Du        
   8021 ****       226.0000  13.0000  17.2500 Du        
   8022 ****       226.0000  13.2500  16.7500 Du        
   8023 ****       226.0000  13.2500  17.0000 Du        
   8024 ****       226.0000  20.7500  14.0000 Du        
   8025 ****       226.0000  20.7500  14.2500 Du        
   8026 ****       226.0000  20.7500  14.5000 Du        
   8027 ****       226.0000  20.7500  14.7500 Du        
   8028 ****       226.0000  21.0000  14.0000 Du        
   8029 ****       226.0000  21.0000  14.2500 Du        
   8030 ****       226.0000  21.0000  14.5000 Du        
   8031 ****       226.0000  21.0000  14.7500 Du        
   8032 ****       226.0000  21.0000  15.0000 Du        
   8033 ****       226.0000  21.2500  14.2500 Du        
   8034 ****       226.0000  21.2500  14.5000 Du        
   8035 ****       226.0000  21.2500  14.7500 Du        
   8036 ****       226.0000  21.2500  15.0000 Du        
   8037 ****       226.0000  21.5000  14.5000 Du        
   8038 ****       226.0000  21.5000  14.7500 Du        
   8039 ****       226.0000  21.5000  15.0000 Du        
   8040 ****       226.0000  21.7500  14.7500 Du        
   8041 ****       226.0000  21.7500  15.0000 Du        
   8042 ****       226.2500  10.0000  14.0000 Du        
   8043 ****       226.2500  10.0000  14.2500 Du        
   8044 ****       226.2500  10.2500  14.2500 Du        
   8045 ****       226.2500  12.7500  16.7500 Du        
   8046 ****       226.2500  13.0000  16.7500 Du        
   8047 ****       226.2500  13.0000  17.0000 Du        
   8048 ****       226.2500  13.2500  16.7500 Du        
   8049 ****       226.2500  13.2500  17.0000 Du        
   8050 ****       226.2500  20.7500  14.2500 Du        
   8051 ****       226.2500  20.7500  14.5000 Du        
   8052 ****       226.2500  21.0000  14.0000 Du        
   8053 ****       226.2500  21.0000  14.2500 Du        
   8054 ****       226.2500  21.0000  14.5000 Du        
   8055 ****       226.2500  21.0000  14.7500 Du        
   8056 ****       226.2500  21.2500  14.5000 Du        
   8057 ****       226.2500  21.2500  14.7500 Du        
   8058 ****       226.2500  21.2500  15.0000 Du        
   8059 ****       226.2500  21.5000  14.5000 Du        
   8060 ****       226.2500  21.5000  14.7500 Du        
   8061 ****       226.2500  21.5000  15.0000 Du        
   8062 ****       226.2500  21.7500  14.5000 Du        
   8063 ****       226.2500  21.7500  14.7500 Du        
   8064 ****       226.2500  21.7500  15.0000 Du        
   8065 ****       226.5000  10.2500  14.2500 Du        
   8066 ****       226.5000  10.5000  14.2500 Du        
   8067 ****       226.5000  10.7500  13.7500 Du        
   8068 ****       226.5000  10.7500  14.0000 Du        
   8069 ****       226.5000  10.7500  14.2500 Du        
   8070 ****       226.5000  10.7500  14.5000 Du        
   8071 ****       226.5000  11.0000  14.0000 Du        
   8072 ****       226.5000  11.0000  14.2500 Du        
   8073 ****       226.5000  12.7500  16.5000 Du        
   8074 ****       226.5000  12.7500  16.7500 Du        
   8075 ****       226.5000  12.7500  17.0000 Du        
   8076 ****       226.5000  13.0000  16.5000 Du        
   8077 ****       226.5000  13.0000  16.7500 Du        
   8078 ****       226.5000  13.0000  17.0000 Du        
   8079 ****       226.5000  13.0000  17.2500 Du        
   8080 ****       226.5000  13.2500  16.5000 Du        
   8081 ****       226.5000  13.2500  16.7500 Du        
   8082 ****       226.5000  13.2500  17.0000 Du        
   8083 ****       226.5000  13.2500  17.2500 Du        
   8084 ****       226.5000  21.0000  14.0000 Du        
   8085 ****       226.5000  21.0000  14.2500 Du        
   8086 ****       226.5000  21.0000  14.5000 Du        
   8087 ****       226.5000  21.2500  14.0000 Du        
   8088 ****       226.5000  21.2500  14.2500 Du        
   8089 ****       226.5000  21.2500  14.5000 Du        
   8090 ****       226.5000  21.2500  14.7500 Du        
   8091 ****       226.5000  21.2500  15.0000 Du        
   8092 ****       226.5000  21.5000  14.0000 Du        
   8093 ****       226.5000  21.5000  14.2500 Du        
   8094 ****       226.5000  21.5000  14.5000 Du        
   8095 ****       226.5000  21.5000  14.7500 Du        
   8096 ****       226.5000  21.5000  15.0000 Du        
   8097 ****       226.5000  21.7500  14.2500 Du        
   8098 ****       226.5000  21.7500  14.5000 Du        
   8099 ****       226.5000  21.7500  14.7500 Du        
   8100 ****       226.5000  21.7500  15.0000 Du        
   8101 ****       226.5000  22.0000  14.7500 Du        
   8102 ****       226.5000  22.0000  15.0000 Du        
   8103 ****       226.7500  10.2500  14.2500 Du        
   8104 ****       226.7500  10.5000  14.2500 Du        
   8105 ****       226.7500  10.5000  14.5000 Du        
   8106 ****       226.7500  10.7500  13.7500 Du        
   8107 ****       226.7500  10.7500  14.0000 Du        
   8108 ****       226.7500  10.7500  14.2500 Du        
   8109 ****       226.7500  10.7500  14.5000 Du        
   8110 ****       226.7500  10.7500  14.7500 Du        
   8111 ****       226.7500  11.0000  13.7500 Du        
   8112 ****       226.7500  11.0000  14.0000 Du        
   8113 ****       226.7500  11.0000  14.2500 Du        
   8114 ****       226.7500  11.0000  14.5000 Du        
   8115 ****       226.7500  11.0000  15.0000 Du        
   8116 ****       226.7500  11.2500  13.7500 Du        
   8117 ****       226.7500  11.2500  14.0000 Du        
   8118 ****       226.7500  11.2500  14.2500 Du        
   8119 ****       226.7500  11.2500  15.0000 Du        
   8120 ****       226.7500  12.7500  16.5000 Du        
   8121 ****       226.7500  12.7500  16.7500 Du        
   8122 ****       226.7500  12.7500  17.0000 Du        
   8123 ****       226.7500  12.7500  17.2500 Du        
   8124 ****       226.7500  13.0000  16.5000 Du        
   8125 ****       226.7500  13.0000  16.7500 Du        
   8126 ****       226.7500  13.0000  17.0000 Du        
   8127 ****       226.7500  13.0000  17.2500 Du        
   8128 ****       226.7500  13.2500  16.5000 Du        
   8129 ****       226.7500  13.2500  16.7500 Du        
   8130 ****       226.7500  13.2500  17.0000 Du        
   8131 ****       226.7500  13.2500  17.2500 Du        
   8132 ****       226.7500  21.0000  13.7500 Du        
   8133 ****       226.7500  21.0000  14.0000 Du        
   8134 ****       226.7500  21.2500  13.7500 Du        
   8135 ****       226.7500  21.2500  14.0000 Du        
   8136 ****       226.7500  21.2500  14.2500 Du        
   8137 ****       226.7500  21.2500  14.5000 Du        
   8138 ****       226.7500  21.5000  14.0000 Du        
   8139 ****       226.7500  21.5000  14.2500 Du        
   8140 ****       226.7500  21.5000  14.5000 Du        
   8141 ****       226.7500  21.5000  14.7500 Du        
   8142 ****       226.7500  21.7500  14.0000 Du        
   8143 ****       226.7500  21.7500  14.2500 Du        
   8144 ****       226.7500  21.7500  14.5000 Du        
   8145 ****       226.7500  21.7500  14.7500 Du        
   8146 ****       226.7500  21.7500  15.0000 Du        
   8147 ****       226.7500  22.0000  14.2500 Du        
   8148 ****       226.7500  22.0000  14.5000 Du        
   8149 ****       226.7500  22.0000  14.7500 Du        
   8150 ****       226.7500  22.0000  15.0000 Du        
   8151 ****       227.0000  10.2500  14.2500 Du        
   8152 ****       227.0000  10.2500  14.5000 Du        
   8153 ****       227.0000  10.2500  14.7500 Du        
   8154 ****       227.0000  10.5000  14.2500 Du        
   8155 ****       227.0000  10.5000  14.5000 Du        
   8156 ****       227.0000  10.5000  14.7500 Du        
   8157 ****       227.0000  10.7500  14.0000 Du        
   8158 ****       227.0000  10.7500  14.2500 Du        
   8159 ****       227.0000  10.7500  14.5000 Du        
   8160 ****       227.0000  10.7500  14.7500 Du        
   8161 ****       227.0000  10.7500  15.0000 Du        
   8162 ****       227.0000  11.0000  13.7500 Du        
   8163 ****       227.0000  11.0000  14.0000 Du        
   8164 ****       227.0000  11.0000  14.2500 Du        
   8165 ****       227.0000  11.0000  14.5000 Du        
   8166 ****       227.0000  11.0000  14.7500 Du        
   8167 ****       227.0000  11.0000  15.0000 Du        
   8168 ****       227.0000  11.2500  13.2500 Du        
   8169 ****       227.0000  11.2500  13.7500 Du        
   8170 ****       227.0000  11.2500  14.0000 Du        
   8171 ****       227.0000  11.2500  14.2500 Du        
   8172 ****       227.0000  11.2500  14.5000 Du        
   8173 ****       227.0000  11.2500  14.7500 Du        
   8174 ****       227.0000  11.2500  15.0000 Du        
   8175 ****       227.0000  11.5000  13.2500 Du        
   8176 ****       227.0000  11.5000  13.7500 Du        
   8177 ****       227.0000  11.5000  14.0000 Du        
   8178 ****       227.0000  11.5000  14.2500 Du        
   8179 ****       227.0000  11.7500  13.7500 Du        
   8180 ****       227.0000  11.7500  14.0000 Du        
   8181 ****       227.0000  11.7500  14.2500 Du        
   8182 ****       227.0000  12.5000  16.5000 Du        
   8183 ****       227.0000  12.5000  16.7500 Du        
   8184 ****       227.0000  12.5000  17.0000 Du        
   8185 ****       227.0000  12.7500  16.5000 Du        
   8186 ****       227.0000  12.7500  16.7500 Du        
   8187 ****       227.0000  12.7500  17.0000 Du        
   8188 ****       227.0000  12.7500  17.2500 Du        
   8189 ****       227.0000  12.7500  17.5000 Du        
   8190 ****       227.0000  13.0000  16.5000 Du        
   8191 ****       227.0000  13.0000  16.7500 Du        
   8192 ****       227.0000  13.0000  17.0000 Du        
   8193 ****       227.0000  13.0000  17.2500 Du        
   8194 ****       227.0000  13.0000  17.5000 Du        
   8195 ****       227.0000  13.2500  16.5000 Du        
   8196 ****       227.0000  13.2500  16.7500 Du        
   8197 ****       227.0000  13.2500  17.0000 Du        
   8198 ****       227.0000  13.2500  17.2500 Du        
   8199 ****       227.0000  13.5000  16.7500 Du        
   8200 ****       227.0000  13.5000  17.0000 Du        
   8201 ****       227.0000  21.0000  13.7500 Du        
   8202 ****       227.0000  21.2500  13.5000 Du        
   8203 ****       227.0000  21.2500  13.7500 Du        
   8204 ****       227.0000  21.2500  14.0000 Du        
   8205 ****       227.0000  21.5000  13.2500 Du        
   8206 ****       227.0000  21.5000  13.7500 Du        
   8207 ****       227.0000  21.5000  14.0000 Du        
   8208 ****       227.0000  21.5000  14.2500 Du        
   8209 ****       227.0000  21.5000  14.5000 Du        
   8210 ****       227.0000  21.7500  13.7500 Du        
   8211 ****       227.0000  21.7500  14.0000 Du        
   8212 ****       227.0000  21.7500  14.2500 Du        
   8213 ****       227.0000  21.7500  14.5000 Du        
   8214 ****       227.0000  22.0000  14.0000 Du        
   8215 ****       227.0000  22.0000  14.2500 Du        
   8216 ****       227.0000  22.0000  14.5000 Du        
   8217 ****       227.0000  22.2500  14.5000 Du        
   8218 ****       227.0000  27.7500  12.7500 Du        
   8219 ****       227.0000  28.0000  12.7500 Du        
   8220 ****       227.2500  10.2500  14.5000 Du        
   8221 ****       227.2500  10.2500  14.7500 Du        
   8222 ****       227.2500  10.5000  14.2500 Du        
   8223 ****       227.2500  10.5000  14.5000 Du        
   8224 ****       227.2500  10.5000  14.7500 Du        
   8225 ****       227.2500  10.7500  14.0000 Du        
   8226 ****       227.2500  10.7500  14.2500 Du        
   8227 ****       227.2500  10.7500  14.5000 Du        
   8228 ****       227.2500  10.7500  14.7500 Du        
   8229 ****       227.2500  10.7500  15.0000 Du        
   8230 ****       227.2500  11.0000  13.7500 Du        
   8231 ****       227.2500  11.0000  14.0000 Du        
   8232 ****       227.2500  11.0000  14.2500 Du        
   8233 ****       227.2500  11.0000  14.5000 Du        
   8234 ****       227.2500  11.0000  14.7500 Du        
   8235 ****       227.2500  11.0000  15.0000 Du        
   8236 ****       227.2500  11.0000  15.2500 Du        
   8237 ****       227.2500  11.2500  13.7500 Du        
   8238 ****       227.2500  11.2500  14.0000 Du        
   8239 ****       227.2500  11.2500  14.2500 Du        
   8240 ****       227.2500  11.2500  14.5000 Du        
   8241 ****       227.2500  11.2500  14.7500 Du        
   8242 ****       227.2500  11.2500  15.0000 Du        
   8243 ****       227.2500  11.2500  15.2500 Du        
   8244 ****       227.2500  11.5000  13.7500 Du        
   8245 ****       227.2500  11.5000  14.0000 Du        
   8246 ****       227.2500  11.5000  14.2500 Du        
   8247 ****       227.2500  11.7500  13.7500 Du        
   8248 ****       227.2500  11.7500  14.0000 Du        
   8249 ****       227.2500  11.7500  14.2500 Du        
   8250 ****       227.2500  11.7500  15.0000 Du        
   8251 ****       227.2500  12.0000  14.0000 Du        
   8252 ****       227.2500  12.0000  14.2500 Du        
   8253 ****       227.2500  12.5000  16.5000 Du        
   8254 ****       227.2500  12.5000  16.7500 Du        
   8255 ****       227.2500  12.5000  17.0000 Du        
   8256 ****       227.2500  12.5000  17.2500 Du        
   8257 ****       227.2500  12.7500  16.2500 Du        
   8258 ****       227.2500  12.7500  16.5000 Du        
   8259 ****       227.2500  12.7500  16.7500 Du        
   8260 ****       227.2500  12.7500  17.0000 Du        
   8261 ****       227.2500  12.7500  17.2500 Du        
   8262 ****       227.2500  12.7500  17.5000 Du        
   8263 ****       227.2500  13.0000  16.2500 Du        
   8264 ****       227.2500  13.0000  16.5000 Du        
   8265 ****       227.2500  13.0000  16.7500 Du        
   8266 ****       227.2500  13.0000  17.0000 Du        
   8267 ****       227.2500  13.0000  17.2500 Du        
   8268 ****       227.2500  13.0000  17.5000 Du        
   8269 ****       227.2500  13.2500  16.5000 Du        
   8270 ****       227.2500  13.2500  16.7500 Du        
   8271 ****       227.2500  13.2500  17.0000 Du        
   8272 ****       227.2500  13.2500  17.2500 Du        
   8273 ****       227.2500  13.5000  16.7500 Du        
   8274 ****       227.2500  13.5000  17.0000 Du        
   8275 ****       227.2500  13.7500  16.7500 Du        
   8276 ****       227.2500  21.2500  13.5000 Du        
   8277 ****       227.2500  21.5000  13.2500 Du        
   8278 ****       227.2500  21.5000  13.5000 Du        
   8279 ****       227.2500  21.5000  13.7500 Du        
   8280 ****       227.2500  21.5000  14.0000 Du        
   8281 ****       227.2500  21.7500  13.0000 Du        
   8282 ****       227.2500  21.7500  13.2500 Du        
   8283 ****       227.2500  21.7500  13.5000 Du        
   8284 ****       227.2500  21.7500  13.7500 Du        
   8285 ****       227.2500  21.7500  14.0000 Du        
   8286 ****       227.2500  21.7500  14.2500 Du        
   8287 ****       227.2500  22.0000  13.0000 Du        
   8288 ****       227.2500  22.0000  13.2500 Du        
   8289 ****       227.2500  22.0000  13.5000 Du        
   8290 ****       227.2500  22.0000  13.7500 Du        
   8291 ****       227.2500  22.0000  14.0000 Du        
   8292 ****       227.2500  22.0000  14.2500 Du        
   8293 ****       227.2500  22.2500  13.7500 Du        
   8294 ****       227.2500  22.2500  14.0000 Du        
   8295 ****       227.2500  22.2500  14.2500 Du        
   8296 ****       227.2500  22.5000  14.5000 Du        
   8297 ****       227.2500  23.5000  11.0000 Du        
   8298 ****       227.2500  23.5000  11.2500 Du        
   8299 ****       227.2500  23.7500  10.7500 Du        
   8300 ****       227.2500  23.7500  11.0000 Du        
   8301 ****       227.2500  23.7500  11.2500 Du        
   8302 ****       227.2500  24.0000  10.5000 Du        
   8303 ****       227.2500  24.0000  10.7500 Du        
   8304 ****       227.2500  24.0000  11.0000 Du        
   8305 ****       227.2500  24.2500  10.7500 Du        
   8306 ****       227.2500  24.2500  11.0000 Du        
   8307 ****       227.2500  27.5000  12.5000 Du        
   8308 ****       227.2500  27.5000  12.7500 Du        
   8309 ****       227.2500  27.5000  13.0000 Du        
   8310 ****       227.2500  27.5000  13.2500 Du        
   8311 ****       227.2500  27.7500  12.5000 Du        
   8312 ****       227.2500  27.7500  12.7500 Du        
   8313 ****       227.2500  27.7500  13.0000 Du        
   8314 ****       227.2500  27.7500  13.2500 Du        
   8315 ****       227.2500  28.0000  12.5000 Du        
   8316 ****       227.2500  28.0000  12.7500 Du        
   8317 ****       227.2500  28.0000  13.0000 Du        
   8318 ****       227.2500  28.0000  13.2500 Du        
   8319 ****       227.2500  28.2500  12.7500 Du        
   8320 ****       227.2500  28.2500  13.0000 Du        
   8321 ****       227.2500  28.2500  13.2500 Du        
   8322 ****       227.2500  28.5000  13.0000 Du        
   8323 ****       227.5000  10.2500  14.5000 Du        
   8324 ****       227.5000  10.2500  14.7500 Du        
   8325 ****       227.5000  10.2500  15.0000 Du        
   8326 ****       227.5000  10.5000  14.5000 Du        
   8327 ****       227.5000  10.5000  14.7500 Du        
   8328 ****       227.5000  10.5000  15.0000 Du        
   8329 ****       227.5000  10.7500  14.0000 Du        
   8330 ****       227.5000  10.7500  14.2500 Du        
   8331 ****       227.5000  10.7500  14.5000 Du        
   8332 ****       227.5000  10.7500  14.7500 Du        
   8333 ****       227.5000  10.7500  15.0000 Du        
   8334 ****       227.5000  10.7500  15.2500 Du        
   8335 ****       227.5000  11.0000  14.0000 Du        
   8336 ****       227.5000  11.0000  14.2500 Du        
   8337 ****       227.5000  11.0000  14.5000 Du        
   8338 ****       227.5000  11.0000  14.7500 Du        
   8339 ****       227.5000  11.0000  15.0000 Du        
   8340 ****       227.5000  11.0000  15.2500 Du        
   8341 ****       227.5000  11.0000  15.5000 Du        
   8342 ****       227.5000  11.2500  13.7500 Du        
   8343 ****       227.5000  11.2500  14.0000 Du        
   8344 ****       227.5000  11.2500  14.2500 Du        
   8345 ****       227.5000  11.2500  14.5000 Du        
   8346 ****       227.5000  11.2500  14.7500 Du        
   8347 ****       227.5000  11.2500  15.0000 Du        
   8348 ****       227.5000  11.2500  15.2500 Du        
   8349 ****       227.5000  11.2500  15.5000 Du        
   8350 ****       227.5000  11.5000  13.7500 Du        
   8351 ****       227.5000  11.5000  14.0000 Du        
   8352 ****       227.5000  11.5000  14.2500 Du        
   8353 ****       227.5000  11.5000  14.5000 Du        
   8354 ****       227.5000  11.5000  14.7500 Du        
   8355 ****       227.5000  11.5000  15.0000 Du        
   8356 ****       227.5000  11.5000  15.2500 Du        
   8357 ****       227.5000  11.5000  15.5000 Du        
   8358 ****       227.5000  11.5000  15.7500 Du        
   8359 ****       227.5000  11.7500  13.7500 Du        
   8360 ****       227.5000  11.7500  14.0000 Du        
   8361 ****       227.5000  11.7500  14.2500 Du        
   8362 ****       227.5000  11.7500  14.5000 Du        
   8363 ****       227.5000  11.7500  14.7500 Du        
   8364 ****       227.5000  11.7500  15.0000 Du        
   8365 ****       227.5000  11.7500  15.2500 Du        
   8366 ****       227.5000  11.7500  15.5000 Du        
   8367 ****       227.5000  11.7500  15.7500 Du        
   8368 ****       227.5000  11.7500  16.0000 Du        
   8369 ****       227.5000  12.0000  13.7500 Du        
   8370 ****       227.5000  12.0000  14.0000 Du        
   8371 ****       227.5000  12.0000  14.2500 Du        
   8372 ****       227.5000  12.0000  14.7500 Du        
   8373 ****       227.5000  12.0000  15.0000 Du        
   8374 ****       227.5000  12.0000  15.2500 Du        
   8375 ****       227.5000  12.0000  15.5000 Du        
   8376 ****       227.5000  12.0000  15.7500 Du        
   8377 ****       227.5000  12.0000  16.0000 Du        
   8378 ****       227.5000  12.0000  16.2500 Du        
   8379 ****       227.5000  12.2500  15.0000 Du        
   8380 ****       227.5000  12.2500  15.2500 Du        
   8381 ****       227.5000  12.2500  15.5000 Du        
   8382 ****       227.5000  12.2500  15.7500 Du        
   8383 ****       227.5000  12.2500  16.0000 Du        
   8384 ****       227.5000  12.2500  16.2500 Du        
   8385 ****       227.5000  12.2500  16.5000 Du        
   8386 ****       227.5000  12.2500  16.7500 Du        
   8387 ****       227.5000  12.2500  17.0000 Du        
   8388 ****       227.5000  12.5000  16.0000 Du        
   8389 ****       227.5000  12.5000  16.2500 Du        
   8390 ****       227.5000  12.5000  16.5000 Du        
   8391 ****       227.5000  12.5000  16.7500 Du        
   8392 ****       227.5000  12.5000  17.0000 Du        
   8393 ****       227.5000  12.5000  17.2500 Du        
   8394 ****       227.5000  12.5000  17.5000 Du        
   8395 ****       227.5000  12.7500  16.2500 Du        
   8396 ****       227.5000  12.7500  16.5000 Du        
   8397 ****       227.5000  12.7500  16.7500 Du        
   8398 ****       227.5000  12.7500  17.0000 Du        
   8399 ****       227.5000  12.7500  17.2500 Du        
   8400 ****       227.5000  12.7500  17.5000 Du        
   8401 ****       227.5000  12.7500  17.7500 Du        
   8402 ****       227.5000  13.0000  15.7500 Du        
   8403 ****       227.5000  13.0000  16.2500 Du        
   8404 ****       227.5000  13.0000  16.5000 Du        
   8405 ****       227.5000  13.0000  16.7500 Du        
   8406 ****       227.5000  13.0000  17.0000 Du        
   8407 ****       227.5000  13.0000  17.2500 Du        
   8408 ****       227.5000  13.0000  17.5000 Du        
   8409 ****       227.5000  13.0000  17.7500 Du        
   8410 ****       227.5000  13.2500  16.5000 Du        
   8411 ****       227.5000  13.2500  16.7500 Du        
   8412 ****       227.5000  13.2500  17.0000 Du        
   8413 ****       227.5000  13.2500  17.2500 Du        
   8414 ****       227.5000  13.2500  17.5000 Du        
   8415 ****       227.5000  13.5000  16.7500 Du        
   8416 ****       227.5000  13.5000  17.0000 Du        
   8417 ****       227.5000  14.0000  16.7500 Du        
   8418 ****       227.5000  21.5000  13.2500 Du        
   8419 ****       227.5000  21.5000  13.5000 Du        
   8420 ****       227.5000  21.5000  13.7500 Du        
   8421 ****       227.5000  21.7500  12.7500 Du        
   8422 ****       227.5000  21.7500  13.0000 Du        
   8423 ****       227.5000  21.7500  13.2500 Du        
   8424 ****       227.5000  21.7500  13.5000 Du        
   8425 ****       227.5000  21.7500  13.7500 Du        
   8426 ****       227.5000  21.7500  14.0000 Du        
   8427 ****       227.5000  22.0000  12.2500 Du        
   8428 ****       227.5000  22.0000  12.7500 Du        
   8429 ****       227.5000  22.0000  13.0000 Du        
   8430 ****       227.5000  22.0000  13.2500 Du        
   8431 ****       227.5000  22.0000  13.5000 Du        
   8432 ****       227.5000  22.0000  13.7500 Du        
   8433 ****       227.5000  22.0000  14.0000 Du        
   8434 ****       227.5000  22.0000  14.2500 Du        
   8435 ****       227.5000  22.2500  12.0000 Du        
   8436 ****       227.5000  22.2500  12.2500 Du        
   8437 ****       227.5000  22.2500  12.7500 Du        
   8438 ****       227.5000  22.2500  13.0000 Du        
   8439 ****       227.5000  22.2500  13.2500 Du        
   8440 ****       227.5000  22.2500  13.5000 Du        
   8441 ****       227.5000  22.2500  13.7500 Du        
   8442 ****       227.5000  22.2500  14.0000 Du        
   8443 ****       227.5000  22.2500  14.2500 Du        
   8444 ****       227.5000  22.5000  11.7500 Du        
   8445 ****       227.5000  22.5000  12.0000 Du        
   8446 ****       227.5000  22.5000  12.2500 Du        
   8447 ****       227.5000  22.5000  12.5000 Du        
   8448 ****       227.5000  22.5000  12.7500 Du        
   8449 ****       227.5000  22.5000  13.0000 Du        
   8450 ****       227.5000  22.5000  13.2500 Du        
   8451 ****       227.5000  22.5000  13.5000 Du        
   8452 ****       227.5000  22.5000  13.7500 Du        
   8453 ****       227.5000  22.5000  14.0000 Du        
   8454 ****       227.5000  22.5000  14.2500 Du        
   8455 ****       227.5000  22.7500  11.5000 Du        
   8456 ****       227.5000  22.7500  11.7500 Du        
   8457 ****       227.5000  22.7500  12.0000 Du        
   8458 ****       227.5000  22.7500  12.2500 Du        
   8459 ****       227.5000  22.7500  12.5000 Du        
   8460 ****       227.5000  22.7500  14.0000 Du        
   8461 ****       227.5000  23.0000  11.2500 Du        
   8462 ****       227.5000  23.0000  11.5000 Du        
   8463 ****       227.5000  23.0000  11.7500 Du        
   8464 ****       227.5000  23.0000  12.0000 Du        
   8465 ****       227.5000  23.2500  11.0000 Du        
   8466 ****       227.5000  23.2500  11.2500 Du        
   8467 ****       227.5000  23.2500  11.5000 Du        
   8468 ****       227.5000  23.2500  11.7500 Du        
   8469 ****       227.5000  23.2500  12.0000 Du        
   8470 ****       227.5000  23.5000  10.5000 Du        
   8471 ****       227.5000  23.5000  10.7500 Du        
   8472 ****       227.5000  23.5000  11.0000 Du        
   8473 ****       227.5000  23.5000  11.2500 Du        
   8474 ****       227.5000  23.5000  11.5000 Du        
   8475 ****       227.5000  23.5000  11.7500 Du        
   8476 ****       227.5000  23.7500  10.2500 Du        
   8477 ****       227.5000  23.7500  10.5000 Du        
   8478 ****       227.5000  23.7500  10.7500 Du        
   8479 ****       227.5000  23.7500  11.0000 Du        
   8480 ****       227.5000  23.7500  11.2500 Du        
   8481 ****       227.5000  23.7500  11.5000 Du        
   8482 ****       227.5000  24.0000  10.2500 Du        
   8483 ****       227.5000  24.0000  10.5000 Du        
   8484 ****       227.5000  24.0000  10.7500 Du        
   8485 ****       227.5000  24.0000  11.0000 Du        
   8486 ****       227.5000  24.0000  11.2500 Du        
   8487 ****       227.5000  24.0000  11.5000 Du        
   8488 ****       227.5000  24.2500  10.5000 Du        
   8489 ****       227.5000  24.2500  10.7500 Du        
   8490 ****       227.5000  24.2500  11.0000 Du        
   8491 ****       227.5000  24.2500  11.2500 Du        
   8492 ****       227.5000  24.5000  11.0000 Du        
   8493 ****       227.5000  27.2500  12.2500 Du        
   8494 ****       227.5000  27.2500  12.5000 Du        
   8495 ****       227.5000  27.2500  12.7500 Du        
   8496 ****       227.5000  27.2500  13.0000 Du        
   8497 ****       227.5000  27.2500  13.2500 Du        
   8498 ****       227.5000  27.2500  13.5000 Du        
   8499 ****       227.5000  27.2500  13.7500 Du        
   8500 ****       227.5000  27.5000  12.2500 Du        
   8501 ****       227.5000  27.5000  12.5000 Du        
   8502 ****       227.5000  27.5000  12.7500 Du        
   8503 ****       227.5000  27.5000  13.0000 Du        
   8504 ****       227.5000  27.5000  13.2500 Du        
   8505 ****       227.5000  27.5000  13.5000 Du        
   8506 ****       227.5000  27.5000  13.7500 Du        
   8507 ****       227.5000  27.7500  12.2500 Du        
   8508 ****       227.5000  27.7500  12.5000 Du        
   8509 ****       227.5000  27.7500  12.7500 Du        
   8510 ****       227.5000  27.7500  13.0000 Du        
   8511 ****       227.5000  27.7500  13.2500 Du        
   8512 ****       227.5000  27.7500  13.5000 Du        
   8513 ****       227.5000  27.7500  13.7500 Du        
   8514 ****       227.5000  28.0000  12.5000 Du        
   8515 ****       227.5000  28.0000  12.7500 Du        
   8516 ****       227.5000  28.0000  13.0000 Du        
   8517 ****       227.5000  28.0000  13.2500 Du        
   8518 ****       227.5000  28.0000  13.5000 Du        
   8519 ****       227.5000  28.0000  13.7500 Du        
   8520 ****       227.5000  28.2500  12.7500 Du        
   8521 ****       227.5000  28.2500  13.0000 Du        
   8522 ****       227.5000  28.2500  13.2500 Du        
   8523 ****       227.5000  28.2500  13.5000 Du        
   8524 ****       227.5000  28.2500  13.7500 Du        
   8525 ****       227.5000  28.5000  12.7500 Du        
   8526 ****       227.5000  28.5000  13.0000 Du        
   8527 ****       227.5000  28.5000  13.2500 Du        
   8528 ****       227.5000  28.5000  13.5000 Du        
   8529 ****       227.5000  28.7500  13.0000 Du        
   8530 ****       227.5000  28.7500  13.2500 Du        
   8531 ****       227.5000  28.7500  13.5000 Du        
   8532 ****       227.7500  10.2500  14.7500 Du        
   8533 ****       227.7500  10.2500  15.0000 Du        
   8534 ****       227.7500  10.2500  15.2500 Du        
   8535 ****       227.7500  10.5000  14.5000 Du        
   8536 ****       227.7500  10.5000  14.7500 Du        
   8537 ****       227.7500  10.5000  15.0000 Du        
   8538 ****       227.7500  10.5000  15.2500 Du        
   8539 ****       227.7500  10.7500  14.2500 Du        
   8540 ****       227.7500  10.7500  14.5000 Du        
   8541 ****       227.7500  10.7500  14.7500 Du        
   8542 ****       227.7500  10.7500  15.0000 Du        
   8543 ****       227.7500  10.7500  15.2500 Du        
   8544 ****       227.7500  10.7500  15.5000 Du        
   8545 ****       227.7500  11.0000  14.0000 Du        
   8546 ****       227.7500  11.0000  14.2500 Du        
   8547 ****       227.7500  11.0000  14.5000 Du        
   8548 ****       227.7500  11.0000  14.7500 Du        
   8549 ****       227.7500  11.0000  15.0000 Du        
   8550 ****       227.7500  11.0000  15.2500 Du        
   8551 ****       227.7500  11.0000  15.5000 Du        
   8552 ****       227.7500  11.0000  15.7500 Du        
   8553 ****       227.7500  11.2500  13.7500 Du        
   8554 ****       227.7500  11.2500  14.0000 Du        
   8555 ****       227.7500  11.2500  14.2500 Du        
   8556 ****       227.7500  11.2500  14.5000 Du        
   8557 ****       227.7500  11.2500  14.7500 Du        
   8558 ****       227.7500  11.2500  15.0000 Du        
   8559 ****       227.7500  11.2500  15.2500 Du        
   8560 ****       227.7500  11.2500  15.5000 Du        
   8561 ****       227.7500  11.2500  15.7500 Du        
   8562 ****       227.7500  11.5000  13.7500 Du        
   8563 ****       227.7500  11.5000  14.0000 Du        
   8564 ****       227.7500  11.5000  14.2500 Du        
   8565 ****       227.7500  11.5000  14.5000 Du        
   8566 ****       227.7500  11.5000  14.7500 Du        
   8567 ****       227.7500  11.5000  15.0000 Du        
   8568 ****       227.7500  11.5000  15.2500 Du        
   8569 ****       227.7500  11.5000  15.5000 Du        
   8570 ****       227.7500  11.5000  15.7500 Du        
   8571 ****       227.7500  11.5000  16.0000 Du        
   8572 ****       227.7500  11.7500  13.7500 Du        
   8573 ****       227.7500  11.7500  14.0000 Du        
   8574 ****       227.7500  11.7500  14.2500 Du        
   8575 ****       227.7500  11.7500  14.5000 Du        
   8576 ****       227.7500  11.7500  14.7500 Du        
   8577 ****       227.7500  11.7500  15.0000 Du        
   8578 ****       227.7500  11.7500  15.2500 Du        
   8579 ****       227.7500  11.7500  15.5000 Du        
   8580 ****       227.7500  11.7500  15.7500 Du        
   8581 ****       227.7500  11.7500  16.0000 Du        
   8582 ****       227.7500  11.7500  16.2500 Du        
   8583 ****       227.7500  12.0000  13.7500 Du        
   8584 ****       227.7500  12.0000  14.0000 Du        
   8585 ****       227.7500  12.0000  14.2500 Du        
   8586 ****       227.7500  12.0000  14.5000 Du        
   8587 ****       227.7500  12.0000  14.7500 Du        
   8588 ****       227.7500  12.0000  15.0000 Du        
   8589 ****       227.7500  12.0000  15.2500 Du        
   8590 ****       227.7500  12.0000  15.5000 Du        
   8591 ****       227.7500  12.0000  15.7500 Du        
   8592 ****       227.7500  12.0000  16.0000 Du        
   8593 ****       227.7500  12.0000  16.2500 Du        
   8594 ****       227.7500  12.0000  16.5000 Du        
   8595 ****       227.7500  12.0000  16.7500 Du        
   8596 ****       227.7500  12.2500  13.7500 Du        
   8597 ****       227.7500  12.2500  14.0000 Du        
   8598 ****       227.7500  12.2500  14.2500 Du        
   8599 ****       227.7500  12.2500  14.7500 Du        
   8600 ****       227.7500  12.2500  15.0000 Du        
   8601 ****       227.7500  12.2500  15.2500 Du        
   8602 ****       227.7500  12.2500  15.5000 Du        
   8603 ****       227.7500  12.2500  15.7500 Du        
   8604 ****       227.7500  12.2500  16.0000 Du        
   8605 ****       227.7500  12.2500  16.2500 Du        
   8606 ****       227.7500  12.2500  16.5000 Du        
   8607 ****       227.7500  12.2500  16.7500 Du        
   8608 ****       227.7500  12.2500  17.0000 Du        
   8609 ****       227.7500  12.2500  17.2500 Du        
   8610 ****       227.7500  12.2500  17.5000 Du        
   8611 ****       227.7500  12.5000  14.7500 Du        
   8612 ****       227.7500  12.5000  15.0000 Du        
   8613 ****       227.7500  12.5000  15.2500 Du        
   8614 ****       227.7500  12.5000  15.5000 Du        
   8615 ****       227.7500  12.5000  15.7500 Du        
   8616 ****       227.7500  12.5000  16.0000 Du        
   8617 ****       227.7500  12.5000  16.2500 Du        
   8618 ****       227.7500  12.5000  16.5000 Du        
   8619 ****       227.7500  12.5000  16.7500 Du        
   8620 ****       227.7500  12.5000  17.0000 Du        
   8621 ****       227.7500  12.5000  17.2500 Du        
   8622 ****       227.7500  12.5000  17.5000 Du        
   8623 ****       227.7500  12.5000  17.7500 Du        
   8624 ****       227.7500  12.5000  18.0000 Du        
   8625 ****       227.7500  12.7500  15.7500 Du        
   8626 ****       227.7500  12.7500  16.0000 Du        
   8627 ****       227.7500  12.7500  16.2500 Du        
   8628 ****       227.7500  12.7500  16.5000 Du        
   8629 ****       227.7500  12.7500  16.7500 Du        
   8630 ****       227.7500  12.7500  17.0000 Du        
   8631 ****       227.7500  12.7500  17.2500 Du        
   8632 ****       227.7500  12.7500  17.5000 Du        
   8633 ****       227.7500  12.7500  17.7500 Du        
   8634 ****       227.7500  12.7500  18.0000 Du        
   8635 ****       227.7500  13.0000  15.7500 Du        
   8636 ****       227.7500  13.0000  16.0000 Du        
   8637 ****       227.7500  13.0000  16.2500 Du        
   8638 ****       227.7500  13.0000  16.5000 Du        
   8639 ****       227.7500  13.0000  16.7500 Du        
   8640 ****       227.7500  13.0000  17.0000 Du        
   8641 ****       227.7500  13.0000  17.2500 Du        
   8642 ****       227.7500  13.0000  17.5000 Du        
   8643 ****       227.7500  13.0000  17.7500 Du        
   8644 ****       227.7500  13.2500  16.0000 Du        
   8645 ****       227.7500  13.2500  16.5000 Du        
   8646 ****       227.7500  13.2500  16.7500 Du        
   8647 ****       227.7500  13.2500  17.0000 Du        
   8648 ****       227.7500  13.2500  17.2500 Du        
   8649 ****       227.7500  13.2500  17.5000 Du        
   8650 ****       227.7500  13.5000  16.7500 Du        
   8651 ****       227.7500  13.5000  17.0000 Du        
   8652 ****       227.7500  13.7500  16.7500 Du        
   8653 ****       227.7500  13.7500  17.0000 Du        
   8654 ****       227.7500  21.5000  12.7500 Du        
   8655 ****       227.7500  21.5000  13.0000 Du        
   8656 ****       227.7500  21.5000  13.2500 Du        
   8657 ****       227.7500  21.5000  13.5000 Du        
   8658 ****       227.7500  21.7500  12.2500 Du        
   8659 ****       227.7500  21.7500  12.5000 Du        
   8660 ****       227.7500  21.7500  12.7500 Du        
   8661 ****       227.7500  21.7500  13.0000 Du        
   8662 ****       227.7500  21.7500  13.2500 Du        
   8663 ****       227.7500  21.7500  13.5000 Du        
   8664 ****       227.7500  21.7500  13.7500 Du        
   8665 ****       227.7500  22.0000  12.0000 Du        
   8666 ****       227.7500  22.0000  12.2500 Du        
   8667 ****       227.7500  22.0000  12.5000 Du        
   8668 ****       227.7500  22.0000  12.7500 Du        
   8669 ****       227.7500  22.0000  13.0000 Du        
   8670 ****       227.7500  22.0000  13.2500 Du        
   8671 ****       227.7500  22.0000  13.5000 Du        
   8672 ****       227.7500  22.0000  13.7500 Du        
   8673 ****       227.7500  22.0000  14.0000 Du        
   8674 ****       227.7500  22.2500  11.7500 Du        
   8675 ****       227.7500  22.2500  12.0000 Du        
   8676 ****       227.7500  22.2500  12.2500 Du        
   8677 ****       227.7500  22.2500  12.5000 Du        
   8678 ****       227.7500  22.2500  12.7500 Du        
   8679 ****       227.7500  22.2500  13.0000 Du        
   8680 ****       227.7500  22.2500  13.2500 Du        
   8681 ****       227.7500  22.2500  13.5000 Du        
   8682 ****       227.7500  22.2500  13.7500 Du        
   8683 ****       227.7500  22.2500  14.0000 Du        
   8684 ****       227.7500  22.5000  11.5000 Du        
   8685 ****       227.7500  22.5000  11.7500 Du        
   8686 ****       227.7500  22.5000  12.0000 Du        
   8687 ****       227.7500  22.5000  12.2500 Du        
   8688 ****       227.7500  22.5000  12.5000 Du        
   8689 ****       227.7500  22.5000  12.7500 Du        
   8690 ****       227.7500  22.5000  13.0000 Du        
   8691 ****       227.7500  22.5000  13.2500 Du        
   8692 ****       227.7500  22.5000  13.5000 Du        
   8693 ****       227.7500  22.5000  13.7500 Du        
   8694 ****       227.7500  22.5000  14.0000 Du        
   8695 ****       227.7500  22.7500  11.2500 Du        
   8696 ****       227.7500  22.7500  11.5000 Du        
   8697 ****       227.7500  22.7500  11.7500 Du        
   8698 ****       227.7500  22.7500  12.0000 Du        
   8699 ****       227.7500  22.7500  12.2500 Du        
   8700 ****       227.7500  22.7500  12.5000 Du        
   8701 ****       227.7500  22.7500  12.7500 Du        
   8702 ****       227.7500  22.7500  13.0000 Du        
   8703 ****       227.7500  22.7500  13.2500 Du        
   8704 ****       227.7500  22.7500  13.5000 Du        
   8705 ****       227.7500  22.7500  13.7500 Du        
   8706 ****       227.7500  22.7500  14.0000 Du        
   8707 ****       227.7500  22.7500  14.2500 Du        
   8708 ****       227.7500  23.0000  11.0000 Du        
   8709 ****       227.7500  23.0000  11.2500 Du        
   8710 ****       227.7500  23.0000  11.5000 Du        
   8711 ****       227.7500  23.0000  11.7500 Du        
   8712 ****       227.7500  23.0000  12.0000 Du        
   8713 ****       227.7500  23.0000  12.2500 Du        
   8714 ****       227.7500  23.0000  12.5000 Du        
   8715 ****       227.7500  23.0000  12.7500 Du        
   8716 ****       227.7500  23.0000  13.0000 Du        
   8717 ****       227.7500  23.0000  13.2500 Du        
   8718 ****       227.7500  23.0000  13.5000 Du        
   8719 ****       227.7500  23.0000  13.7500 Du        
   8720 ****       227.7500  23.0000  14.0000 Du        
   8721 ****       227.7500  23.2500  10.7500 Du        
   8722 ****       227.7500  23.2500  11.0000 Du        
   8723 ****       227.7500  23.2500  11.2500 Du        
   8724 ****       227.7500  23.2500  11.5000 Du        
   8725 ****       227.7500  23.2500  11.7500 Du        
   8726 ****       227.7500  23.2500  12.0000 Du        
   8727 ****       227.7500  23.2500  12.2500 Du        
   8728 ****       227.7500  23.2500  12.5000 Du        
   8729 ****       227.7500  23.2500  12.7500 Du        
   8730 ****       227.7500  23.2500  13.7500 Du        
   8731 ****       227.7500  23.2500  14.0000 Du        
   8732 ****       227.7500  23.5000  10.2500 Du        
   8733 ****       227.7500  23.5000  10.5000 Du        
   8734 ****       227.7500  23.5000  10.7500 Du        
   8735 ****       227.7500  23.5000  11.0000 Du        
   8736 ****       227.7500  23.5000  11.2500 Du        
   8737 ****       227.7500  23.5000  11.5000 Du        
   8738 ****       227.7500  23.5000  11.7500 Du        
   8739 ****       227.7500  23.5000  12.0000 Du        
   8740 ****       227.7500  23.5000  12.2500 Du        
   8741 ****       227.7500  23.5000  12.5000 Du        
   8742 ****       227.7500  23.7500  10.2500 Du        
   8743 ****       227.7500  23.7500  10.5000 Du        
   8744 ****       227.7500  23.7500  10.7500 Du        
   8745 ****       227.7500  23.7500  11.0000 Du        
   8746 ****       227.7500  23.7500  11.2500 Du        
   8747 ****       227.7500  23.7500  11.5000 Du        
   8748 ****       227.7500  23.7500  11.7500 Du        
   8749 ****       227.7500  23.7500  12.0000 Du        
   8750 ****       227.7500  24.0000  10.2500 Du        
   8751 ****       227.7500  24.0000  10.5000 Du        
   8752 ****       227.7500  24.0000  10.7500 Du        
   8753 ****       227.7500  24.0000  11.0000 Du        
   8754 ****       227.7500  24.0000  11.2500 Du        
   8755 ****       227.7500  24.0000  11.5000 Du        
   8756 ****       227.7500  24.0000  11.7500 Du        
   8757 ****       227.7500  24.0000  12.0000 Du        
   8758 ****       227.7500  24.2500  10.5000 Du        
   8759 ****       227.7500  24.2500  10.7500 Du        
   8760 ****       227.7500  24.2500  11.0000 Du        
   8761 ****       227.7500  24.2500  11.2500 Du        
   8762 ****       227.7500  24.2500  11.5000 Du        
   8763 ****       227.7500  24.2500  11.7500 Du        
   8764 ****       227.7500  24.5000  11.0000 Du        
   8765 ****       227.7500  24.5000  11.2500 Du        
   8766 ****       227.7500  24.5000  11.5000 Du        
   8767 ****       227.7500  25.5000  14.7500 Du        
   8768 ****       227.7500  25.7500  14.7500 Du        
   8769 ****       227.7500  25.7500  15.0000 Du        
   8770 ****       227.7500  26.0000  14.5000 Du        
   8771 ****       227.7500  26.0000  14.7500 Du        
   8772 ****       227.7500  26.0000  15.0000 Du        
   8773 ****       227.7500  26.2500  14.2500 Du        
   8774 ****       227.7500  26.2500  14.5000 Du        
   8775 ****       227.7500  26.2500  14.7500 Du        
   8776 ****       227.7500  26.2500  15.0000 Du        
   8777 ****       227.7500  26.5000  13.7500 Du        
   8778 ****       227.7500  26.5000  14.0000 Du        
   8779 ****       227.7500  26.5000  14.2500 Du        
   8780 ****       227.7500  26.5000  14.5000 Du        
   8781 ****       227.7500  26.5000  14.7500 Du        
   8782 ****       227.7500  26.5000  15.0000 Du        
   8783 ****       227.7500  26.7500  12.2500 Du        
   8784 ****       227.7500  26.7500  12.5000 Du        
   8785 ****       227.7500  26.7500  12.7500 Du        
   8786 ****       227.7500  26.7500  13.0000 Du        
   8787 ****       227.7500  26.7500  13.2500 Du        
   8788 ****       227.7500  26.7500  13.5000 Du        
   8789 ****       227.7500  26.7500  13.7500 Du        
   8790 ****       227.7500  26.7500  14.0000 Du        
   8791 ****       227.7500  26.7500  14.2500 Du        
   8792 ****       227.7500  26.7500  14.5000 Du        
   8793 ****       227.7500  26.7500  14.7500 Du        
   8794 ****       227.7500  27.0000  12.2500 Du        
   8795 ****       227.7500  27.0000  12.5000 Du        
   8796 ****       227.7500  27.0000  12.7500 Du        
   8797 ****       227.7500  27.0000  13.0000 Du        
   8798 ****       227.7500  27.0000  13.2500 Du        
   8799 ****       227.7500  27.0000  13.5000 Du        
   8800 ****       227.7500  27.0000  13.7500 Du        
   8801 ****       227.7500  27.0000  14.0000 Du        
   8802 ****       227.7500  27.0000  14.2500 Du        
   8803 ****       227.7500  27.0000  14.5000 Du        
   8804 ****       227.7500  27.2500  12.2500 Du        
   8805 ****       227.7500  27.2500  12.5000 Du        
   8806 ****       227.7500  27.2500  12.7500 Du        
   8807 ****       227.7500  27.2500  13.0000 Du        
   8808 ****       227.7500  27.2500  13.2500 Du        
   8809 ****       227.7500  27.2500  13.5000 Du        
   8810 ****       227.7500  27.2500  13.7500 Du        
   8811 ****       227.7500  27.2500  14.0000 Du        
   8812 ****       227.7500  27.2500  14.2500 Du        
   8813 ****       227.7500  27.5000  12.2500 Du        
   8814 ****       227.7500  27.5000  12.5000 Du        
   8815 ****       227.7500  27.5000  12.7500 Du        
   8816 ****       227.7500  27.5000  13.0000 Du        
   8817 ****       227.7500  27.5000  13.2500 Du        
   8818 ****       227.7500  27.5000  13.5000 Du        
   8819 ****       227.7500  27.5000  13.7500 Du        
   8820 ****       227.7500  27.5000  14.0000 Du        
   8821 ****       227.7500  27.5000  14.2500 Du        
   8822 ****       227.7500  27.7500  12.2500 Du        
   8823 ****       227.7500  27.7500  12.5000 Du        
   8824 ****       227.7500  27.7500  12.7500 Du        
   8825 ****       227.7500  27.7500  13.0000 Du        
   8826 ****       227.7500  27.7500  13.2500 Du        
   8827 ****       227.7500  27.7500  13.5000 Du        
   8828 ****       227.7500  27.7500  13.7500 Du        
   8829 ****       227.7500  27.7500  14.0000 Du        
   8830 ****       227.7500  28.0000  12.5000 Du        
   8831 ****       227.7500  28.0000  12.7500 Du        
   8832 ****       227.7500  28.0000  13.0000 Du        
   8833 ****       227.7500  28.0000  13.2500 Du        
   8834 ****       227.7500  28.0000  13.5000 Du        
   8835 ****       227.7500  28.0000  13.7500 Du        
   8836 ****       227.7500  28.0000  14.0000 Du        
   8837 ****       227.7500  28.2500  12.5000 Du        
   8838 ****       227.7500  28.2500  12.7500 Du        
   8839 ****       227.7500  28.2500  13.0000 Du        
   8840 ****       227.7500  28.2500  13.2500 Du        
   8841 ****       227.7500  28.2500  13.5000 Du        
   8842 ****       227.7500  28.2500  13.7500 Du        
   8843 ****       227.7500  28.2500  14.0000 Du        
   8844 ****       227.7500  28.5000  12.7500 Du        
   8845 ****       227.7500  28.5000  13.0000 Du        
   8846 ****       227.7500  28.5000  13.2500 Du        
   8847 ****       227.7500  28.5000  13.5000 Du        
   8848 ****       227.7500  28.5000  13.7500 Du        
   8849 ****       227.7500  28.5000  14.0000 Du        
   8850 ****       227.7500  28.7500  13.0000 Du        
   8851 ****       227.7500  28.7500  13.2500 Du        
   8852 ****       227.7500  28.7500  13.5000 Du        
   8853 ****       227.7500  28.7500  13.7500 Du        
   8854 ****       227.7500  29.0000  13.2500 Du        
   8855 ****       227.7500  29.0000  13.5000 Du        
   8856 ****       227.7500  29.0000  13.7500 Du        
   8857 ****       228.0000  10.0000  15.0000 Du        
   8858 ****       228.0000  10.2500  14.7500 Du        
   8859 ****       228.0000  10.2500  15.0000 Du        
   8860 ****       228.0000  10.2500  15.2500 Du        
   8861 ****       228.0000  10.5000  14.5000 Du        
   8862 ****       228.0000  10.5000  14.7500 Du        
   8863 ****       228.0000  10.5000  15.0000 Du        
   8864 ****       228.0000  10.5000  15.2500 Du        
   8865 ****       228.0000  10.5000  15.5000 Du        
   8866 ****       228.0000  10.7500  14.2500 Du        
   8867 ****       228.0000  10.7500  14.5000 Du        
   8868 ****       228.0000  10.7500  14.7500 Du        
   8869 ****       228.0000  10.7500  15.0000 Du        
   8870 ****       228.0000  10.7500  15.2500 Du        
   8871 ****       228.0000  10.7500  15.5000 Du        
   8872 ****       228.0000  10.7500  15.7500 Du        
   8873 ****       228.0000  11.0000  14.0000 Du        
   8874 ****       228.0000  11.0000  14.2500 Du        
   8875 ****       228.0000  11.0000  14.5000 Du        
   8876 ****       228.0000  11.0000  14.7500 Du        
   8877 ****       228.0000  11.0000  15.0000 Du        
   8878 ****       228.0000  11.0000  15.2500 Du        
   8879 ****       228.0000  11.0000  15.5000 Du        
   8880 ****       228.0000  11.0000  15.7500 Du        
   8881 ****       228.0000  11.2500  13.7500 Du        
   8882 ****       228.0000  11.2500  14.0000 Du        
   8883 ****       228.0000  11.2500  14.2500 Du        
   8884 ****       228.0000  11.2500  14.5000 Du        
   8885 ****       228.0000  11.2500  14.7500 Du        
   8886 ****       228.0000  11.2500  15.0000 Du        
   8887 ****       228.0000  11.2500  15.2500 Du        
   8888 ****       228.0000  11.2500  15.5000 Du        
   8889 ****       228.0000  11.2500  15.7500 Du        
   8890 ****       228.0000  11.2500  16.0000 Du        
   8891 ****       228.0000  11.5000  13.7500 Du        
   8892 ****       228.0000  11.5000  14.0000 Du        
   8893 ****       228.0000  11.5000  14.2500 Du        
   8894 ****       228.0000  11.5000  14.5000 Du        
   8895 ****       228.0000  11.5000  14.7500 Du        
   8896 ****       228.0000  11.5000  15.0000 Du        
   8897 ****       228.0000  11.5000  15.2500 Du        
   8898 ****       228.0000  11.5000  15.5000 Du        
   8899 ****       228.0000  11.5000  15.7500 Du        
   8900 ****       228.0000  11.5000  16.0000 Du        
   8901 ****       228.0000  11.5000  16.2500 Du        
   8902 ****       228.0000  11.7500  13.7500 Du        
   8903 ****       228.0000  11.7500  14.0000 Du        
   8904 ****       228.0000  11.7500  14.2500 Du        
   8905 ****       228.0000  11.7500  14.5000 Du        
   8906 ****       228.0000  11.7500  14.7500 Du        
   8907 ****       228.0000  11.7500  15.0000 Du        
   8908 ****       228.0000  11.7500  15.2500 Du        
   8909 ****       228.0000  11.7500  15.5000 Du        
   8910 ****       228.0000  11.7500  15.7500 Du        
   8911 ****       228.0000  11.7500  16.0000 Du        
   8912 ****       228.0000  11.7500  16.2500 Du        
   8913 ****       228.0000  11.7500  16.5000 Du        
   8914 ****       228.0000  12.0000  13.7500 Du        
   8915 ****       228.0000  12.0000  14.0000 Du        
   8916 ****       228.0000  12.0000  14.2500 Du        
   8917 ****       228.0000  12.0000  14.5000 Du        
   8918 ****       228.0000  12.0000  14.7500 Du        
   8919 ****       228.0000  12.0000  15.0000 Du        
   8920 ****       228.0000  12.0000  15.2500 Du        
   8921 ****       228.0000  12.0000  15.5000 Du        
   8922 ****       228.0000  12.0000  15.7500 Du        
   8923 ****       228.0000  12.0000  16.0000 Du        
   8924 ****       228.0000  12.0000  16.2500 Du        
   8925 ****       228.0000  12.0000  16.5000 Du        
   8926 ****       228.0000  12.0000  16.7500 Du        
   8927 ****       228.0000  12.0000  17.0000 Du        
   8928 ****       228.0000  12.2500  13.7500 Du        
   8929 ****       228.0000  12.2500  14.0000 Du        
   8930 ****       228.0000  12.2500  14.2500 Du        
   8931 ****       228.0000  12.2500  14.5000 Du        
   8932 ****       228.0000  12.2500  14.7500 Du        
   8933 ****       228.0000  12.2500  15.0000 Du        
   8934 ****       228.0000  12.2500  15.2500 Du        
   8935 ****       228.0000  12.2500  15.5000 Du        
   8936 ****       228.0000  12.2500  15.7500 Du        
   8937 ****       228.0000  12.2500  16.0000 Du        
   8938 ****       228.0000  12.2500  16.2500 Du        
   8939 ****       228.0000  12.2500  16.5000 Du        
   8940 ****       228.0000  12.2500  16.7500 Du        
   8941 ****       228.0000  12.2500  17.0000 Du        
   8942 ****       228.0000  12.2500  17.2500 Du        
   8943 ****       228.0000  12.2500  17.5000 Du        
   8944 ****       228.0000  12.2500  17.7500 Du        
   8945 ****       228.0000  12.2500  18.0000 Du        
   8946 ****       228.0000  12.5000  14.2500 Du        
   8947 ****       228.0000  12.5000  14.5000 Du        
   8948 ****       228.0000  12.5000  14.7500 Du        
   8949 ****       228.0000  12.5000  15.0000 Du        
   8950 ****       228.0000  12.5000  15.2500 Du        
   8951 ****       228.0000  12.5000  15.5000 Du        
   8952 ****       228.0000  12.5000  15.7500 Du        
   8953 ****       228.0000  12.5000  16.0000 Du        
   8954 ****       228.0000  12.5000  16.2500 Du        
   8955 ****       228.0000  12.5000  16.5000 Du        
   8956 ****       228.0000  12.5000  16.7500 Du        
   8957 ****       228.0000  12.5000  17.0000 Du        
   8958 ****       228.0000  12.5000  17.2500 Du        
   8959 ****       228.0000  12.5000  17.5000 Du        
   8960 ****       228.0000  12.5000  17.7500 Du        
   8961 ****       228.0000  12.5000  18.0000 Du        
   8962 ****       228.0000  12.5000  18.2500 Du        
   8963 ****       228.0000  12.7500  14.0000 Du        
   8964 ****       228.0000  12.7500  14.2500 Du        
   8965 ****       228.0000  12.7500  14.7500 Du        
   8966 ****       228.0000  12.7500  15.0000 Du        
   8967 ****       228.0000  12.7500  15.2500 Du        
   8968 ****       228.0000  12.7500  15.7500 Du        
   8969 ****       228.0000  12.7500  16.0000 Du        
   8970 ****       228.0000  12.7500  16.2500 Du        
   8971 ****       228.0000  12.7500  16.5000 Du        
   8972 ****       228.0000  12.7500  16.7500 Du        
   8973 ****       228.0000  12.7500  17.0000 Du        
   8974 ****       228.0000  12.7500  17.2500 Du        
   8975 ****       228.0000  12.7500  17.5000 Du        
   8976 ****       228.0000  12.7500  17.7500 Du        
   8977 ****       228.0000  12.7500  18.0000 Du        
   8978 ****       228.0000  12.7500  18.2500 Du        
   8979 ****       228.0000  13.0000  14.0000 Du        
   8980 ****       228.0000  13.0000  14.2500 Du        
   8981 ****       228.0000  13.0000  14.7500 Du        
   8982 ****       228.0000  13.0000  15.0000 Du        
   8983 ****       228.0000  13.0000  15.2500 Du        
   8984 ****       228.0000  13.0000  16.0000 Du        
   8985 ****       228.0000  13.0000  16.2500 Du        
   8986 ****       228.0000  13.0000  16.5000 Du        
   8987 ****       228.0000  13.0000  16.7500 Du        
   8988 ****       228.0000  13.0000  17.0000 Du        
   8989 ****       228.0000  13.0000  17.2500 Du        
   8990 ****       228.0000  13.0000  17.5000 Du        
   8991 ****       228.0000  13.0000  17.7500 Du        
   8992 ****       228.0000  13.0000  18.0000 Du        
   8993 ****       228.0000  13.2500  16.7500 Du        
   8994 ****       228.0000  13.2500  17.0000 Du        
   8995 ****       228.0000  13.2500  17.2500 Du        
   8996 ****       228.0000  13.2500  17.5000 Du        
   8997 ****       228.0000  13.2500  17.7500 Du        
   8998 ****       228.0000  21.5000  12.7500 Du        
   8999 ****       228.0000  21.5000  13.0000 Du        
   9000 ****       228.0000  21.5000  13.2500 Du        
   9001 ****       228.0000  21.7500  12.0000 Du        
   9002 ****       228.0000  21.7500  12.2500 Du        
   9003 ****       228.0000  21.7500  12.5000 Du        
   9004 ****       228.0000  21.7500  12.7500 Du        
   9005 ****       228.0000  21.7500  13.0000 Du        
   9006 ****       228.0000  21.7500  13.2500 Du        
   9007 ****       228.0000  21.7500  13.5000 Du        
   9008 ****       228.0000  22.0000  11.7500 Du        
   9009 ****       228.0000  22.0000  12.0000 Du        
   9010 ****       228.0000  22.0000  12.2500 Du        
   9011 ****       228.0000  22.0000  12.5000 Du        
   9012 ****       228.0000  22.0000  12.7500 Du        
   9013 ****       228.0000  22.0000  13.0000 Du        
   9014 ****       228.0000  22.0000  13.2500 Du        
   9015 ****       228.0000  22.0000  13.5000 Du        
   9016 ****       228.0000  22.0000  13.7500 Du        
   9017 ****       228.0000  22.2500  11.2500 Du        
   9018 ****       228.0000  22.2500  11.5000 Du        
   9019 ****       228.0000  22.2500  11.7500 Du        
   9020 ****       228.0000  22.2500  12.0000 Du        
   9021 ****       228.0000  22.2500  12.2500 Du        
   9022 ****       228.0000  22.2500  12.5000 Du        
   9023 ****       228.0000  22.2500  12.7500 Du        
   9024 ****       228.0000  22.2500  13.0000 Du        
   9025 ****       228.0000  22.2500  13.2500 Du        
   9026 ****       228.0000  22.2500  13.5000 Du        
   9027 ****       228.0000  22.2500  13.7500 Du        
   9028 ****       228.0000  22.5000  11.0000 Du        
   9029 ****       228.0000  22.5000  11.2500 Du        
   9030 ****       228.0000  22.5000  11.5000 Du        
   9031 ****       228.0000  22.5000  11.7500 Du        
   9032 ****       228.0000  22.5000  12.0000 Du        
   9033 ****       228.0000  22.5000  12.2500 Du        
   9034 ****       228.0000  22.5000  12.5000 Du        
   9035 ****       228.0000  22.5000  12.7500 Du        
   9036 ****       228.0000  22.5000  13.0000 Du        
   9037 ****       228.0000  22.5000  13.2500 Du        
   9038 ****       228.0000  22.5000  13.5000 Du        
   9039 ****       228.0000  22.5000  13.7500 Du        
   9040 ****       228.0000  22.5000  14.0000 Du        
   9041 ****       228.0000  22.7500  11.0000 Du        
   9042 ****       228.0000  22.7500  11.2500 Du        
   9043 ****       228.0000  22.7500  11.5000 Du        
   9044 ****       228.0000  22.7500  11.7500 Du        
   9045 ****       228.0000  22.7500  12.0000 Du        
   9046 ****       228.0000  22.7500  12.2500 Du        
   9047 ****       228.0000  22.7500  12.5000 Du        
   9048 ****       228.0000  22.7500  12.7500 Du        
   9049 ****       228.0000  22.7500  13.0000 Du        
   9050 ****       228.0000  22.7500  13.2500 Du        
   9051 ****       228.0000  22.7500  13.5000 Du        
   9052 ****       228.0000  22.7500  13.7500 Du        
   9053 ****       228.0000  22.7500  14.0000 Du        
   9054 ****       228.0000  23.0000  10.7500 Du        
   9055 ****       228.0000  23.0000  11.0000 Du        
   9056 ****       228.0000  23.0000  11.2500 Du        
   9057 ****       228.0000  23.0000  11.5000 Du        
   9058 ****       228.0000  23.0000  11.7500 Du        
   9059 ****       228.0000  23.0000  12.0000 Du        
   9060 ****       228.0000  23.0000  12.2500 Du        
   9061 ****       228.0000  23.0000  12.5000 Du        
   9062 ****       228.0000  23.0000  12.7500 Du        
   9063 ****       228.0000  23.0000  13.0000 Du        
   9064 ****       228.0000  23.0000  13.2500 Du        
   9065 ****       228.0000  23.0000  13.5000 Du        
   9066 ****       228.0000  23.0000  13.7500 Du        
   9067 ****       228.0000  23.0000  14.0000 Du        
   9068 ****       228.0000  23.2500  10.5000 Du        
   9069 ****       228.0000  23.2500  10.7500 Du        
   9070 ****       228.0000  23.2500  11.0000 Du        
   9071 ****       228.0000  23.2500  11.2500 Du        
   9072 ****       228.0000  23.2500  11.5000 Du        
   9073 ****       228.0000  23.2500  11.7500 Du        
   9074 ****       228.0000  23.2500  12.0000 Du        
   9075 ****       228.0000  23.2500  12.2500 Du        
   9076 ****       228.0000  23.2500  12.5000 Du        
   9077 ****       228.0000  23.2500  12.7500 Du        
   9078 ****       228.0000  23.2500  13.0000 Du        
   9079 ****       228.0000  23.2500  13.2500 Du        
   9080 ****       228.0000  23.2500  13.5000 Du        
   9081 ****       228.0000  23.2500  13.7500 Du        
   9082 ****       228.0000  23.2500  14.0000 Du        
   9083 ****       228.0000  23.5000  10.2500 Du        
   9084 ****       228.0000  23.5000  10.5000 Du        
   9085 ****       228.0000  23.5000  10.7500 Du        
   9086 ****       228.0000  23.5000  11.0000 Du        
   9087 ****       228.0000  23.5000  11.2500 Du        
   9088 ****       228.0000  23.5000  11.5000 Du        
   9089 ****       228.0000  23.5000  11.7500 Du        
   9090 ****       228.0000  23.5000  12.0000 Du        
   9091 ****       228.0000  23.5000  12.2500 Du        
   9092 ****       228.0000  23.5000  12.5000 Du        
   9093 ****       228.0000  23.5000  12.7500 Du        
   9094 ****       228.0000  23.5000  13.0000 Du        
   9095 ****       228.0000  23.5000  13.2500 Du        
   9096 ****       228.0000  23.5000  13.5000 Du        
   9097 ****       228.0000  23.5000  13.7500 Du        
   9098 ****       228.0000  23.5000  14.0000 Du        
   9099 ****       228.0000  23.5000  14.2500 Du        
   9100 ****       228.0000  23.7500  10.2500 Du        
   9101 ****       228.0000  23.7500  10.5000 Du        
   9102 ****       228.0000  23.7500  10.7500 Du        
   9103 ****       228.0000  23.7500  11.0000 Du        
   9104 ****       228.0000  23.7500  11.2500 Du        
   9105 ****       228.0000  23.7500  11.5000 Du        
   9106 ****       228.0000  23.7500  11.7500 Du        
   9107 ****       228.0000  23.7500  12.0000 Du        
   9108 ****       228.0000  23.7500  12.2500 Du        
   9109 ****       228.0000  23.7500  12.5000 Du        
   9110 ****       228.0000  23.7500  12.7500 Du        
   9111 ****       228.0000  23.7500  13.0000 Du        
   9112 ****       228.0000  23.7500  13.2500 Du        
   9113 ****       228.0000  23.7500  13.5000 Du        
   9114 ****       228.0000  23.7500  13.7500 Du        
   9115 ****       228.0000  23.7500  14.0000 Du        
   9116 ****       228.0000  23.7500  14.2500 Du        
   9117 ****       228.0000  24.0000  10.2500 Du        
   9118 ****       228.0000  24.0000  10.5000 Du        
   9119 ****       228.0000  24.0000  10.7500 Du        
   9120 ****       228.0000  24.0000  11.0000 Du        
   9121 ****       228.0000  24.0000  11.2500 Du        
   9122 ****       228.0000  24.0000  11.5000 Du        
   9123 ****       228.0000  24.0000  11.7500 Du        
   9124 ****       228.0000  24.0000  12.0000 Du        
   9125 ****       228.0000  24.0000  12.2500 Du        
   9126 ****       228.0000  24.0000  12.5000 Du        
   9127 ****       228.0000  24.0000  12.7500 Du        
   9128 ****       228.0000  24.0000  13.0000 Du        
   9129 ****       228.0000  24.0000  13.2500 Du        
   9130 ****       228.0000  24.0000  13.7500 Du        
   9131 ****       228.0000  24.0000  14.0000 Du        
   9132 ****       228.0000  24.0000  14.2500 Du        
   9133 ****       228.0000  24.0000  14.5000 Du        
   9134 ****       228.0000  24.2500  10.7500 Du        
   9135 ****       228.0000  24.2500  11.0000 Du        
   9136 ****       228.0000  24.2500  11.2500 Du        
   9137 ****       228.0000  24.2500  11.5000 Du        
   9138 ****       228.0000  24.2500  11.7500 Du        
   9139 ****       228.0000  24.2500  12.0000 Du        
   9140 ****       228.0000  24.2500  12.2500 Du        
   9141 ****       228.0000  24.2500  12.5000 Du        
   9142 ****       228.0000  24.2500  14.0000 Du        
   9143 ****       228.0000  24.2500  14.2500 Du        
   9144 ****       228.0000  24.2500  14.5000 Du        
   9145 ****       228.0000  24.5000  11.2500 Du        
   9146 ****       228.0000  24.5000  11.5000 Du        
   9147 ****       228.0000  24.5000  11.7500 Du        
   9148 ****       228.0000  24.5000  12.0000 Du        
   9149 ****       228.0000  24.5000  14.2500 Du        
   9150 ****       228.0000  24.5000  14.5000 Du        
   9151 ****       228.0000  24.5000  14.7500 Du        
   9152 ****       228.0000  24.7500  14.2500 Du        
   9153 ****       228.0000  24.7500  14.5000 Du        
   9154 ****       228.0000  24.7500  14.7500 Du        
   9155 ****       228.0000  24.7500  15.0000 Du        
   9156 ****       228.0000  25.0000  14.2500 Du        
   9157 ****       228.0000  25.0000  14.5000 Du        
   9158 ****       228.0000  25.0000  14.7500 Du        
   9159 ****       228.0000  25.0000  15.0000 Du        
   9160 ****       228.0000  25.2500  14.2500 Du        
   9161 ****       228.0000  25.2500  14.5000 Du        
   9162 ****       228.0000  25.2500  14.7500 Du        
   9163 ****       228.0000  25.2500  15.0000 Du        
   9164 ****       228.0000  25.5000  14.0000 Du        
   9165 ****       228.0000  25.5000  14.2500 Du        
   9166 ****       228.0000  25.5000  14.5000 Du        
   9167 ****       228.0000  25.5000  14.7500 Du        
   9168 ****       228.0000  25.5000  15.0000 Du        
   9169 ****       228.0000  25.7500  13.7500 Du        
   9170 ****       228.0000  25.7500  14.0000 Du        
   9171 ****       228.0000  25.7500  14.2500 Du        
   9172 ****       228.0000  25.7500  14.5000 Du        
   9173 ****       228.0000  25.7500  14.7500 Du        
   9174 ****       228.0000  25.7500  15.0000 Du        
   9175 ****       228.0000  26.0000  13.5000 Du        
   9176 ****       228.0000  26.0000  13.7500 Du        
   9177 ****       228.0000  26.0000  14.0000 Du        
   9178 ****       228.0000  26.0000  14.2500 Du        
   9179 ****       228.0000  26.0000  14.5000 Du        
   9180 ****       228.0000  26.0000  14.7500 Du        
   9181 ****       228.0000  26.0000  15.0000 Du        
   9182 ****       228.0000  26.2500  12.7500 Du        
   9183 ****       228.0000  26.2500  13.0000 Du        
   9184 ****       228.0000  26.2500  13.2500 Du        
   9185 ****       228.0000  26.2500  13.5000 Du        
   9186 ****       228.0000  26.2500  13.7500 Du        
   9187 ****       228.0000  26.2500  14.0000 Du        
   9188 ****       228.0000  26.2500  14.2500 Du        
   9189 ****       228.0000  26.2500  14.5000 Du        
   9190 ****       228.0000  26.2500  14.7500 Du        
   9191 ****       228.0000  26.2500  15.0000 Du        
   9192 ****       228.0000  26.5000  12.2500 Du        
   9193 ****       228.0000  26.5000  12.5000 Du        
   9194 ****       228.0000  26.5000  12.7500 Du        
   9195 ****       228.0000  26.5000  13.0000 Du        
   9196 ****       228.0000  26.5000  13.2500 Du        
   9197 ****       228.0000  26.5000  13.5000 Du        
   9198 ****       228.0000  26.5000  13.7500 Du        
   9199 ****       228.0000  26.5000  14.0000 Du        
   9200 ****       228.0000  26.5000  14.2500 Du        
   9201 ****       228.0000  26.5000  14.5000 Du        
   9202 ****       228.0000  26.5000  14.7500 Du        
   9203 ****       228.0000  26.5000  15.0000 Du        
   9204 ****       228.0000  26.7500  12.2500 Du        
   9205 ****       228.0000  26.7500  12.5000 Du        
   9206 ****       228.0000  26.7500  12.7500 Du        
   9207 ****       228.0000  26.7500  13.0000 Du        
   9208 ****       228.0000  26.7500  13.2500 Du        
   9209 ****       228.0000  26.7500  13.5000 Du        
   9210 ****       228.0000  26.7500  13.7500 Du        
   9211 ****       228.0000  26.7500  14.0000 Du        
   9212 ****       228.0000  26.7500  14.2500 Du        
   9213 ****       228.0000  26.7500  14.5000 Du        
   9214 ****       228.0000  26.7500  14.7500 Du        
   9215 ****       228.0000  26.7500  15.0000 Du        
   9216 ****       228.0000  27.0000  12.2500 Du        
   9217 ****       228.0000  27.0000  12.5000 Du        
   9218 ****       228.0000  27.0000  12.7500 Du        
   9219 ****       228.0000  27.0000  13.0000 Du        
   9220 ****       228.0000  27.0000  13.2500 Du        
   9221 ****       228.0000  27.0000  13.5000 Du        
   9222 ****       228.0000  27.0000  13.7500 Du        
   9223 ****       228.0000  27.0000  14.0000 Du        
   9224 ****       228.0000  27.0000  14.2500 Du        
   9225 ****       228.0000  27.0000  14.5000 Du        
   9226 ****       228.0000  27.0000  14.7500 Du        
   9227 ****       228.0000  27.0000  15.0000 Du        
   9228 ****       228.0000  27.2500  12.2500 Du        
   9229 ****       228.0000  27.2500  12.5000 Du        
   9230 ****       228.0000  27.2500  12.7500 Du        
   9231 ****       228.0000  27.2500  13.0000 Du        
   9232 ****       228.0000  27.2500  13.2500 Du        
   9233 ****       228.0000  27.2500  13.5000 Du        
   9234 ****       228.0000  27.2500  13.7500 Du        
   9235 ****       228.0000  27.2500  14.0000 Du        
   9236 ****       228.0000  27.2500  14.2500 Du        
   9237 ****       228.0000  27.2500  14.5000 Du        
   9238 ****       228.0000  27.2500  14.7500 Du        
   9239 ****       228.0000  27.2500  15.0000 Du        
   9240 ****       228.0000  27.5000  12.2500 Du        
   9241 ****       228.0000  27.5000  12.5000 Du        
   9242 ****       228.0000  27.5000  12.7500 Du        
   9243 ****       228.0000  27.5000  13.0000 Du        
   9244 ****       228.0000  27.5000  13.2500 Du        
   9245 ****       228.0000  27.5000  13.5000 Du        
   9246 ****       228.0000  27.5000  13.7500 Du        
   9247 ****       228.0000  27.5000  14.0000 Du        
   9248 ****       228.0000  27.5000  14.2500 Du        
   9249 ****       228.0000  27.5000  14.5000 Du        
   9250 ****       228.0000  27.5000  14.7500 Du        
   9251 ****       228.0000  27.7500  12.2500 Du        
   9252 ****       228.0000  27.7500  12.5000 Du        
   9253 ****       228.0000  27.7500  12.7500 Du        
   9254 ****       228.0000  27.7500  13.0000 Du        
   9255 ****       228.0000  27.7500  13.2500 Du        
   9256 ****       228.0000  27.7500  13.5000 Du        
   9257 ****       228.0000  27.7500  13.7500 Du        
   9258 ****       228.0000  27.7500  14.0000 Du        
   9259 ****       228.0000  27.7500  14.2500 Du        
   9260 ****       228.0000  27.7500  14.5000 Du        
   9261 ****       228.0000  28.0000  12.2500 Du        
   9262 ****       228.0000  28.0000  12.5000 Du        
   9263 ****       228.0000  28.0000  12.7500 Du        
   9264 ****       228.0000  28.0000  13.0000 Du        
   9265 ****       228.0000  28.0000  13.2500 Du        
   9266 ****       228.0000  28.0000  13.5000 Du        
   9267 ****       228.0000  28.0000  13.7500 Du        
   9268 ****       228.0000  28.0000  14.0000 Du        
   9269 ****       228.0000  28.0000  14.2500 Du        
   9270 ****       228.0000  28.0000  14.5000 Du        
   9271 ****       228.0000  28.2500  12.5000 Du        
   9272 ****       228.0000  28.2500  12.7500 Du        
   9273 ****       228.0000  28.2500  13.0000 Du        
   9274 ****       228.0000  28.2500  13.2500 Du        
   9275 ****       228.0000  28.2500  13.5000 Du        
   9276 ****       228.0000  28.2500  13.7500 Du        
   9277 ****       228.0000  28.2500  14.0000 Du        
   9278 ****       228.0000  28.2500  14.2500 Du        
   9279 ****       228.0000  28.5000  12.7500 Du        
   9280 ****       228.0000  28.5000  13.0000 Du        
   9281 ****       228.0000  28.5000  13.2500 Du        
   9282 ****       228.0000  28.5000  13.5000 Du        
   9283 ****       228.0000  28.5000  13.7500 Du        
   9284 ****       228.0000  28.5000  14.0000 Du        
   9285 ****       228.0000  28.7500  13.0000 Du        
   9286 ****       228.0000  28.7500  13.2500 Du        
   9287 ****       228.0000  28.7500  13.5000 Du        
   9288 ****       228.0000  28.7500  13.7500 Du        
   9289 ****       228.0000  28.7500  14.0000 Du        
   9290 ****       228.0000  29.0000  13.2500 Du        
   9291 ****       228.0000  29.0000  13.5000 Du        
   9292 ****       228.0000  29.0000  13.7500 Du        
   9293 ****       228.2500  10.0000  15.0000 Du        
   9294 ****       228.2500  10.0000  15.2500 Du        
   9295 ****       228.2500  10.2500  14.7500 Du        
   9296 ****       228.2500  10.2500  15.0000 Du        
   9297 ****       228.2500  10.2500  15.2500 Du        
   9298 ****       228.2500  10.2500  15.5000 Du        
   9299 ****       228.2500  10.5000  14.5000 Du        
   9300 ****       228.2500  10.5000  14.7500 Du        
   9301 ****       228.2500  10.5000  15.0000 Du        
   9302 ****       228.2500  10.5000  15.2500 Du        
   9303 ****       228.2500  10.5000  15.5000 Du        
   9304 ****       228.2500  10.5000  15.7500 Du        
   9305 ****       228.2500  10.7500  14.2500 Du        
   9306 ****       228.2500  10.7500  14.5000 Du        
   9307 ****       228.2500  10.7500  14.7500 Du        
   9308 ****       228.2500  10.7500  15.0000 Du        
   9309 ****       228.2500  10.7500  15.2500 Du        
   9310 ****       228.2500  10.7500  15.5000 Du        
   9311 ****       228.2500  10.7500  15.7500 Du        
   9312 ****       228.2500  11.0000  14.0000 Du        
   9313 ****       228.2500  11.0000  14.2500 Du        
   9314 ****       228.2500  11.0000  14.5000 Du        
   9315 ****       228.2500  11.0000  14.7500 Du        
   9316 ****       228.2500  11.0000  15.0000 Du        
   9317 ****       228.2500  11.0000  15.2500 Du        
   9318 ****       228.2500  11.0000  15.5000 Du        
   9319 ****       228.2500  11.0000  15.7500 Du        
   9320 ****       228.2500  11.0000  16.0000 Du        
   9321 ****       228.2500  11.2500  13.7500 Du        
   9322 ****       228.2500  11.2500  14.0000 Du        
   9323 ****       228.2500  11.2500  14.2500 Du        
   9324 ****       228.2500  11.2500  14.5000 Du        
   9325 ****       228.2500  11.2500  14.7500 Du        
   9326 ****       228.2500  11.2500  15.0000 Du        
   9327 ****       228.2500  11.2500  15.2500 Du        
   9328 ****       228.2500  11.2500  15.5000 Du        
   9329 ****       228.2500  11.2500  15.7500 Du        
   9330 ****       228.2500  11.2500  16.0000 Du        
   9331 ****       228.2500  11.2500  16.2500 Du        
   9332 ****       228.2500  11.5000  13.7500 Du        
   9333 ****       228.2500  11.5000  14.0000 Du        
   9334 ****       228.2500  11.5000  14.2500 Du        
   9335 ****       228.2500  11.5000  14.5000 Du        
   9336 ****       228.2500  11.5000  14.7500 Du        
   9337 ****       228.2500  11.5000  15.0000 Du        
   9338 ****       228.2500  11.5000  15.2500 Du        
   9339 ****       228.2500  11.5000  15.5000 Du        
   9340 ****       228.2500  11.5000  15.7500 Du        
   9341 ****       228.2500  11.5000  16.0000 Du        
   9342 ****       228.2500  11.5000  16.2500 Du        
   9343 ****       228.2500  11.5000  16.5000 Du        
   9344 ****       228.2500  11.7500  13.7500 Du        
   9345 ****       228.2500  11.7500  14.0000 Du        
   9346 ****       228.2500  11.7500  14.2500 Du        
   9347 ****       228.2500  11.7500  14.5000 Du        
   9348 ****       228.2500  11.7500  14.7500 Du        
   9349 ****       228.2500  11.7500  15.0000 Du        
   9350 ****       228.2500  11.7500  15.2500 Du        
   9351 ****       228.2500  11.7500  15.5000 Du        
   9352 ****       228.2500  11.7500  15.7500 Du        
   9353 ****       228.2500  11.7500  16.0000 Du        
   9354 ****       228.2500  11.7500  16.2500 Du        
   9355 ****       228.2500  11.7500  16.5000 Du        
   9356 ****       228.2500  11.7500  16.7500 Du        
   9357 ****       228.2500  11.7500  17.0000 Du        
   9358 ****       228.2500  12.0000  13.7500 Du        
   9359 ****       228.2500  12.0000  14.0000 Du        
   9360 ****       228.2500  12.0000  14.2500 Du        
   9361 ****       228.2500  12.0000  14.5000 Du        
   9362 ****       228.2500  12.0000  14.7500 Du        
   9363 ****       228.2500  12.0000  15.0000 Du        
   9364 ****       228.2500  12.0000  15.2500 Du        
   9365 ****       228.2500  12.0000  15.5000 Du        
   9366 ****       228.2500  12.0000  15.7500 Du        
   9367 ****       228.2500  12.0000  16.0000 Du        
   9368 ****       228.2500  12.0000  16.2500 Du        
   9369 ****       228.2500  12.0000  16.5000 Du        
   9370 ****       228.2500  12.0000  16.7500 Du        
   9371 ****       228.2500  12.0000  17.0000 Du        
   9372 ****       228.2500  12.0000  17.2500 Du        
   9373 ****       228.2500  12.0000  17.5000 Du        
   9374 ****       228.2500  12.2500  13.7500 Du        
   9375 ****       228.2500  12.2500  14.0000 Du        
   9376 ****       228.2500  12.2500  14.2500 Du        
   9377 ****       228.2500  12.2500  14.5000 Du        
   9378 ****       228.2500  12.2500  14.7500 Du        
   9379 ****       228.2500  12.2500  15.0000 Du        
   9380 ****       228.2500  12.2500  15.2500 Du        
   9381 ****       228.2500  12.2500  15.5000 Du        
   9382 ****       228.2500  12.2500  15.7500 Du        
   9383 ****       228.2500  12.2500  16.0000 Du        
   9384 ****       228.2500  12.2500  16.2500 Du        
   9385 ****       228.2500  12.2500  16.5000 Du        
   9386 ****       228.2500  12.2500  16.7500 Du        
   9387 ****       228.2500  12.2500  17.0000 Du        
   9388 ****       228.2500  12.2500  17.2500 Du        
   9389 ****       228.2500  12.2500  17.5000 Du        
   9390 ****       228.2500  12.2500  17.7500 Du        
   9391 ****       228.2500  12.2500  18.0000 Du        
   9392 ****       228.2500  12.2500  18.2500 Du        
   9393 ****       228.2500  12.5000  14.0000 Du        
   9394 ****       228.2500  12.5000  14.2500 Du        
   9395 ****       228.2500  12.5000  14.5000 Du        
   9396 ****       228.2500  12.5000  14.7500 Du        
   9397 ****       228.2500  12.5000  15.0000 Du        
   9398 ****       228.2500  12.5000  15.2500 Du        
   9399 ****       228.2500  12.5000  15.7500 Du        
   9400 ****       228.2500  12.5000  16.5000 Du        
   9401 ****       228.2500  12.5000  16.7500 Du        
   9402 ****       228.2500  12.5000  17.0000 Du        
   9403 ****       228.2500  12.5000  17.2500 Du        
   9404 ****       228.2500  12.5000  17.5000 Du        
   9405 ****       228.2500  12.5000  17.7500 Du        
   9406 ****       228.2500  12.5000  18.0000 Du        
   9407 ****       228.2500  12.5000  18.2500 Du        
   9408 ****       228.2500  12.5000  18.5000 Du        
   9409 ****       228.2500  12.7500  14.0000 Du        
   9410 ****       228.2500  12.7500  14.2500 Du        
   9411 ****       228.2500  12.7500  14.5000 Du        
   9412 ****       228.2500  12.7500  14.7500 Du        
   9413 ****       228.2500  12.7500  15.0000 Du        
   9414 ****       228.2500  12.7500  15.2500 Du        
   9415 ****       228.2500  12.7500  16.7500 Du        
   9416 ****       228.2500  12.7500  17.0000 Du        
   9417 ****       228.2500  12.7500  17.2500 Du        
   9418 ****       228.2500  12.7500  17.5000 Du        
   9419 ****       228.2500  12.7500  17.7500 Du        
   9420 ****       228.2500  12.7500  18.0000 Du        
   9421 ****       228.2500  12.7500  18.2500 Du        
   9422 ****       228.2500  13.0000  14.0000 Du        
   9423 ****       228.2500  13.0000  14.2500 Du        
   9424 ****       228.2500  13.0000  15.0000 Du        
   9425 ****       228.2500  13.0000  17.2500 Du        
   9426 ****       228.2500  13.0000  17.5000 Du        
   9427 ****       228.2500  13.0000  17.7500 Du        
   9428 ****       228.2500  13.0000  18.0000 Du        
   9429 ****       228.2500  13.0000  18.2500 Du        
   9430 ****       228.2500  13.2500  14.0000 Du        
   9431 ****       228.2500  13.2500  17.5000 Du        
   9432 ****       228.2500  13.2500  17.7500 Du        
   9433 ****       228.2500  21.5000  12.0000 Du        
   9434 ****       228.2500  21.5000  12.2500 Du        
   9435 ****       228.2500  21.5000  12.5000 Du        
   9436 ****       228.2500  21.5000  12.7500 Du        
   9437 ****       228.2500  21.5000  13.0000 Du        
   9438 ****       228.2500  21.5000  13.2500 Du        
   9439 ****       228.2500  21.7500  11.7500 Du        
   9440 ****       228.2500  21.7500  12.0000 Du        
   9441 ****       228.2500  21.7500  12.2500 Du        
   9442 ****       228.2500  21.7500  12.5000 Du        
   9443 ****       228.2500  21.7500  12.7500 Du        
   9444 ****       228.2500  21.7500  13.0000 Du        
   9445 ****       228.2500  21.7500  13.2500 Du        
   9446 ****       228.2500  22.0000  11.2500 Du        
   9447 ****       228.2500  22.0000  11.5000 Du        
   9448 ****       228.2500  22.0000  11.7500 Du        
   9449 ****       228.2500  22.0000  12.0000 Du        
   9450 ****       228.2500  22.0000  12.2500 Du        
   9451 ****       228.2500  22.0000  12.5000 Du        
   9452 ****       228.2500  22.0000  12.7500 Du        
   9453 ****       228.2500  22.0000  13.0000 Du        
   9454 ****       228.2500  22.0000  13.2500 Du        
   9455 ****       228.2500  22.0000  13.5000 Du        
   9456 ****       228.2500  22.2500  11.0000 Du        
   9457 ****       228.2500  22.2500  11.2500 Du        
   9458 ****       228.2500  22.2500  11.5000 Du        
   9459 ****       228.2500  22.2500  11.7500 Du        
   9460 ****       228.2500  22.2500  12.0000 Du        
   9461 ****       228.2500  22.2500  12.2500 Du        
   9462 ****       228.2500  22.2500  12.5000 Du        
   9463 ****       228.2500  22.2500  12.7500 Du        
   9464 ****       228.2500  22.2500  13.0000 Du        
   9465 ****       228.2500  22.2500  13.2500 Du        
   9466 ****       228.2500  22.2500  13.5000 Du        
   9467 ****       228.2500  22.5000  11.0000 Du        
   9468 ****       228.2500  22.5000  11.2500 Du        
   9469 ****       228.2500  22.5000  11.5000 Du        
   9470 ****       228.2500  22.5000  11.7500 Du        
   9471 ****       228.2500  22.5000  12.0000 Du        
   9472 ****       228.2500  22.5000  12.2500 Du        
   9473 ****       228.2500  22.5000  12.5000 Du        
   9474 ****       228.2500  22.5000  12.7500 Du        
   9475 ****       228.2500  22.5000  13.0000 Du        
   9476 ****       228.2500  22.5000  13.2500 Du        
   9477 ****       228.2500  22.5000  13.5000 Du        
   9478 ****       228.2500  22.5000  13.7500 Du        
   9479 ****       228.2500  22.7500  10.7500 Du        
   9480 ****       228.2500  22.7500  11.0000 Du        
   9481 ****       228.2500  22.7500  11.2500 Du        
   9482 ****       228.2500  22.7500  11.5000 Du        
   9483 ****       228.2500  22.7500  11.7500 Du        
   9484 ****       228.2500  22.7500  12.0000 Du        
   9485 ****       228.2500  22.7500  12.2500 Du        
   9486 ****       228.2500  22.7500  12.5000 Du        
   9487 ****       228.2500  22.7500  12.7500 Du        
   9488 ****       228.2500  22.7500  13.0000 Du        
   9489 ****       228.2500  22.7500  13.2500 Du        
   9490 ****       228.2500  22.7500  13.5000 Du        
   9491 ****       228.2500  22.7500  13.7500 Du        
   9492 ****       228.2500  23.0000  10.5000 Du        
   9493 ****       228.2500  23.0000  10.7500 Du        
   9494 ****       228.2500  23.0000  11.0000 Du        
   9495 ****       228.2500  23.0000  11.2500 Du        
   9496 ****       228.2500  23.0000  11.5000 Du        
   9497 ****       228.2500  23.0000  11.7500 Du        
   9498 ****       228.2500  23.0000  12.0000 Du        
   9499 ****       228.2500  23.0000  12.2500 Du        
   9500 ****       228.2500  23.0000  12.5000 Du        
   9501 ****       228.2500  23.0000  12.7500 Du        
   9502 ****       228.2500  23.0000  13.0000 Du        
   9503 ****       228.2500  23.0000  13.2500 Du        
   9504 ****       228.2500  23.0000  13.5000 Du        
   9505 ****       228.2500  23.0000  13.7500 Du        
   9506 ****       228.2500  23.2500  10.5000 Du        
   9507 ****       228.2500  23.2500  10.7500 Du        
   9508 ****       228.2500  23.2500  11.0000 Du        
   9509 ****       228.2500  23.2500  11.2500 Du        
   9510 ****       228.2500  23.2500  11.5000 Du        
   9511 ****       228.2500  23.2500  11.7500 Du        
   9512 ****       228.2500  23.2500  12.0000 Du        
   9513 ****       228.2500  23.2500  12.2500 Du        
   9514 ****       228.2500  23.2500  12.5000 Du        
   9515 ****       228.2500  23.2500  12.7500 Du        
   9516 ****       228.2500  23.2500  13.0000 Du        
   9517 ****       228.2500  23.2500  13.2500 Du        
   9518 ****       228.2500  23.2500  13.5000 Du        
   9519 ****       228.2500  23.2500  13.7500 Du        
   9520 ****       228.2500  23.2500  14.0000 Du        
   9521 ****       228.2500  23.5000  10.2500 Du        
   9522 ****       228.2500  23.5000  10.5000 Du        
   9523 ****       228.2500  23.5000  10.7500 Du        
   9524 ****       228.2500  23.5000  11.0000 Du        
   9525 ****       228.2500  23.5000  11.2500 Du        
   9526 ****       228.2500  23.5000  11.5000 Du        
   9527 ****       228.2500  23.5000  11.7500 Du        
   9528 ****       228.2500  23.5000  12.0000 Du        
   9529 ****       228.2500  23.5000  12.2500 Du        
   9530 ****       228.2500  23.5000  12.5000 Du        
   9531 ****       228.2500  23.5000  12.7500 Du        
   9532 ****       228.2500  23.5000  13.0000 Du        
   9533 ****       228.2500  23.5000  13.2500 Du        
   9534 ****       228.2500  23.5000  13.5000 Du        
   9535 ****       228.2500  23.5000  13.7500 Du        
   9536 ****       228.2500  23.5000  14.0000 Du        
   9537 ****       228.2500  23.7500  10.2500 Du        
   9538 ****       228.2500  23.7500  10.5000 Du        
   9539 ****       228.2500  23.7500  10.7500 Du        
   9540 ****       228.2500  23.7500  11.0000 Du        
   9541 ****       228.2500  23.7500  11.2500 Du        
   9542 ****       228.2500  23.7500  11.5000 Du        
   9543 ****       228.2500  23.7500  11.7500 Du        
   9544 ****       228.2500  23.7500  12.0000 Du        
   9545 ****       228.2500  23.7500  12.2500 Du        
   9546 ****       228.2500  23.7500  12.5000 Du        
   9547 ****       228.2500  23.7500  12.7500 Du        
   9548 ****       228.2500  23.7500  13.0000 Du        
   9549 ****       228.2500  23.7500  13.2500 Du        
   9550 ****       228.2500  23.7500  13.5000 Du        
   9551 ****       228.2500  23.7500  13.7500 Du        
   9552 ****       228.2500  23.7500  14.0000 Du        
   9553 ****       228.2500  23.7500  14.2500 Du        
   9554 ****       228.2500  24.0000  10.7500 Du        
   9555 ****       228.2500  24.0000  11.0000 Du        
   9556 ****       228.2500  24.0000  11.2500 Du        
   9557 ****       228.2500  24.0000  11.5000 Du        
   9558 ****       228.2500  24.0000  11.7500 Du        
   9559 ****       228.2500  24.0000  12.0000 Du        
   9560 ****       228.2500  24.0000  12.2500 Du        
   9561 ****       228.2500  24.0000  12.5000 Du        
   9562 ****       228.2500  24.0000  12.7500 Du        
   9563 ****       228.2500  24.0000  13.0000 Du        
   9564 ****       228.2500  24.0000  13.2500 Du        
   9565 ****       228.2500  24.0000  13.5000 Du        
   9566 ****       228.2500  24.0000  13.7500 Du        
   9567 ****       228.2500  24.0000  14.0000 Du        
   9568 ****       228.2500  24.0000  14.2500 Du        
   9569 ****       228.2500  24.2500  11.0000 Du        
   9570 ****       228.2500  24.2500  11.2500 Du        
   9571 ****       228.2500  24.2500  11.5000 Du        
   9572 ****       228.2500  24.2500  11.7500 Du        
   9573 ****       228.2500  24.2500  12.0000 Du        
   9574 ****       228.2500  24.2500  12.2500 Du        
   9575 ****       228.2500  24.2500  12.5000 Du        
   9576 ****       228.2500  24.2500  12.7500 Du        
   9577 ****       228.2500  24.2500  13.0000 Du        
   9578 ****       228.2500  24.2500  13.2500 Du        
   9579 ****       228.2500  24.2500  13.5000 Du        
   9580 ****       228.2500  24.2500  13.7500 Du        
   9581 ****       228.2500  24.2500  14.0000 Du        
   9582 ****       228.2500  24.2500  14.2500 Du        
   9583 ****       228.2500  24.2500  14.5000 Du        
   9584 ****       228.2500  24.5000  11.5000 Du        
   9585 ****       228.2500  24.5000  11.7500 Du        
   9586 ****       228.2500  24.5000  12.0000 Du        
   9587 ****       228.2500  24.5000  12.2500 Du        
   9588 ****       228.2500  24.5000  12.5000 Du        
   9589 ****       228.2500  24.5000  12.7500 Du        
   9590 ****       228.2500  24.5000  13.0000 Du        
   9591 ****       228.2500  24.5000  13.2500 Du        
   9592 ****       228.2500  24.5000  13.5000 Du        
   9593 ****       228.2500  24.5000  13.7500 Du        
   9594 ****       228.2500  24.5000  14.0000 Du        
   9595 ****       228.2500  24.5000  14.2500 Du        
   9596 ****       228.2500  24.5000  14.5000 Du        
   9597 ****       228.2500  24.5000  14.7500 Du        
   9598 ****       228.2500  24.7500  12.0000 Du        
   9599 ****       228.2500  24.7500  12.2500 Du        
   9600 ****       228.2500  24.7500  12.5000 Du        
   9601 ****       228.2500  24.7500  12.7500 Du        
   9602 ****       228.2500  24.7500  13.0000 Du        
   9603 ****       228.2500  24.7500  13.2500 Du        
   9604 ****       228.2500  24.7500  13.5000 Du        
   9605 ****       228.2500  24.7500  13.7500 Du        
   9606 ****       228.2500  24.7500  14.0000 Du        
   9607 ****       228.2500  24.7500  14.2500 Du        
   9608 ****       228.2500  24.7500  14.5000 Du        
   9609 ****       228.2500  24.7500  14.7500 Du        
   9610 ****       228.2500  25.0000  12.2500 Du        
   9611 ****       228.2500  25.0000  12.5000 Du        
   9612 ****       228.2500  25.0000  12.7500 Du        
   9613 ****       228.2500  25.0000  13.0000 Du        
   9614 ****       228.2500  25.0000  13.2500 Du        
   9615 ****       228.2500  25.0000  13.5000 Du        
   9616 ****       228.2500  25.0000  13.7500 Du        
   9617 ****       228.2500  25.0000  14.0000 Du        
   9618 ****       228.2500  25.0000  14.2500 Du        
   9619 ****       228.2500  25.0000  14.5000 Du        
   9620 ****       228.2500  25.0000  14.7500 Du        
   9621 ****       228.2500  25.0000  15.0000 Du        
   9622 ****       228.2500  25.2500  12.7500 Du        
   9623 ****       228.2500  25.2500  13.0000 Du        
   9624 ****       228.2500  25.2500  13.2500 Du        
   9625 ****       228.2500  25.2500  13.5000 Du        
   9626 ****       228.2500  25.2500  13.7500 Du        
   9627 ****       228.2500  25.2500  14.0000 Du        
   9628 ****       228.2500  25.2500  14.2500 Du        
   9629 ****       228.2500  25.2500  14.5000 Du        
   9630 ****       228.2500  25.2500  14.7500 Du        
   9631 ****       228.2500  25.2500  15.0000 Du        
   9632 ****       228.2500  25.5000  12.7500 Du        
   9633 ****       228.2500  25.5000  13.0000 Du        
   9634 ****       228.2500  25.5000  13.2500 Du        
   9635 ****       228.2500  25.5000  13.5000 Du        
   9636 ****       228.2500  25.5000  13.7500 Du        
   9637 ****       228.2500  25.5000  14.0000 Du        
   9638 ****       228.2500  25.5000  14.2500 Du        
   9639 ****       228.2500  25.5000  14.5000 Du        
   9640 ****       228.2500  25.5000  14.7500 Du        
   9641 ****       228.2500  25.5000  15.0000 Du        
   9642 ****       228.2500  25.7500  12.5000 Du        
   9643 ****       228.2500  25.7500  12.7500 Du        
   9644 ****       228.2500  25.7500  13.0000 Du        
   9645 ****       228.2500  25.7500  13.2500 Du        
   9646 ****       228.2500  25.7500  13.5000 Du        
   9647 ****       228.2500  25.7500  13.7500 Du        
   9648 ****       228.2500  25.7500  14.0000 Du        
   9649 ****       228.2500  25.7500  14.2500 Du        
   9650 ****       228.2500  25.7500  14.5000 Du        
   9651 ****       228.2500  25.7500  14.7500 Du        
   9652 ****       228.2500  25.7500  15.0000 Du        
   9653 ****       228.2500  26.0000  12.2500 Du        
   9654 ****       228.2500  26.0000  12.5000 Du        
   9655 ****       228.2500  26.0000  12.7500 Du        
   9656 ****       228.2500  26.0000  13.0000 Du        
   9657 ****       228.2500  26.0000  13.2500 Du        
   9658 ****       228.2500  26.0000  13.5000 Du        
   9659 ****       228.2500  26.0000  13.7500 Du        
   9660 ****       228.2500  26.0000  14.0000 Du        
   9661 ****       228.2500  26.0000  14.2500 Du        
   9662 ****       228.2500  26.0000  14.5000 Du        
   9663 ****       228.2500  26.0000  14.7500 Du        
   9664 ****       228.2500  26.0000  15.0000 Du        
   9665 ****       228.2500  26.2500  12.2500 Du        
   9666 ****       228.2500  26.2500  12.5000 Du        
   9667 ****       228.2500  26.2500  12.7500 Du        
   9668 ****       228.2500  26.2500  13.0000 Du        
   9669 ****       228.2500  26.2500  13.2500 Du        
   9670 ****       228.2500  26.2500  13.5000 Du        
   9671 ****       228.2500  26.2500  13.7500 Du        
   9672 ****       228.2500  26.2500  14.0000 Du        
   9673 ****       228.2500  26.2500  14.2500 Du        
   9674 ****       228.2500  26.2500  14.5000 Du        
   9675 ****       228.2500  26.2500  14.7500 Du        
   9676 ****       228.2500  26.2500  15.0000 Du        
   9677 ****       228.2500  26.5000  12.2500 Du        
   9678 ****       228.2500  26.5000  12.5000 Du        
   9679 ****       228.2500  26.5000  12.7500 Du        
   9680 ****       228.2500  26.5000  13.0000 Du        
   9681 ****       228.2500  26.5000  13.2500 Du        
   9682 ****       228.2500  26.5000  13.5000 Du        
   9683 ****       228.2500  26.5000  13.7500 Du        
   9684 ****       228.2500  26.5000  14.0000 Du        
   9685 ****       228.2500  26.5000  14.2500 Du        
   9686 ****       228.2500  26.5000  14.5000 Du        
   9687 ****       228.2500  26.5000  14.7500 Du        
   9688 ****       228.2500  26.5000  15.0000 Du        
   9689 ****       228.2500  26.7500  12.2500 Du        
   9690 ****       228.2500  26.7500  12.5000 Du        
   9691 ****       228.2500  26.7500  12.7500 Du        
   9692 ****       228.2500  26.7500  13.0000 Du        
   9693 ****       228.2500  26.7500  13.2500 Du        
   9694 ****       228.2500  26.7500  13.5000 Du        
   9695 ****       228.2500  26.7500  13.7500 Du        
   9696 ****       228.2500  26.7500  14.0000 Du        
   9697 ****       228.2500  26.7500  14.2500 Du        
   9698 ****       228.2500  26.7500  14.5000 Du        
   9699 ****       228.2500  26.7500  14.7500 Du        
   9700 ****       228.2500  26.7500  15.0000 Du        
   9701 ****       228.2500  27.0000  12.2500 Du        
   9702 ****       228.2500  27.0000  12.5000 Du        
   9703 ****       228.2500  27.0000  12.7500 Du        
   9704 ****       228.2500  27.0000  13.0000 Du        
   9705 ****       228.2500  27.0000  13.2500 Du        
   9706 ****       228.2500  27.0000  13.5000 Du        
   9707 ****       228.2500  27.0000  13.7500 Du        
   9708 ****       228.2500  27.0000  14.0000 Du        
   9709 ****       228.2500  27.0000  14.2500 Du        
   9710 ****       228.2500  27.0000  14.5000 Du        
   9711 ****       228.2500  27.0000  14.7500 Du        
   9712 ****       228.2500  27.0000  15.0000 Du        
   9713 ****       228.2500  27.2500  12.2500 Du        
   9714 ****       228.2500  27.2500  12.5000 Du        
   9715 ****       228.2500  27.2500  12.7500 Du        
   9716 ****       228.2500  27.2500  13.0000 Du        
   9717 ****       228.2500  27.2500  13.2500 Du        
   9718 ****       228.2500  27.2500  13.5000 Du        
   9719 ****       228.2500  27.2500  13.7500 Du        
   9720 ****       228.2500  27.2500  14.0000 Du        
   9721 ****       228.2500  27.2500  14.2500 Du        
   9722 ****       228.2500  27.2500  14.5000 Du        
   9723 ****       228.2500  27.2500  14.7500 Du        
   9724 ****       228.2500  27.2500  15.0000 Du        
   9725 ****       228.2500  27.5000  12.2500 Du        
   9726 ****       228.2500  27.5000  12.5000 Du        
   9727 ****       228.2500  27.5000  12.7500 Du        
   9728 ****       228.2500  27.5000  13.0000 Du        
   9729 ****       228.2500  27.5000  13.2500 Du        
   9730 ****       228.2500  27.5000  13.5000 Du        
   9731 ****       228.2500  27.5000  13.7500 Du        
   9732 ****       228.2500  27.5000  14.0000 Du        
   9733 ****       228.2500  27.5000  14.2500 Du        
   9734 ****       228.2500  27.5000  14.5000 Du        
   9735 ****       228.2500  27.5000  14.7500 Du        
   9736 ****       228.2500  27.5000  15.0000 Du        
   9737 ****       228.2500  27.7500  12.2500 Du        
   9738 ****       228.2500  27.7500  12.5000 Du        
   9739 ****       228.2500  27.7500  12.7500 Du        
   9740 ****       228.2500  27.7500  13.0000 Du        
   9741 ****       228.2500  27.7500  13.2500 Du        
   9742 ****       228.2500  27.7500  13.5000 Du        
   9743 ****       228.2500  27.7500  13.7500 Du        
   9744 ****       228.2500  27.7500  14.0000 Du        
   9745 ****       228.2500  27.7500  14.2500 Du        
   9746 ****       228.2500  27.7500  14.5000 Du        
   9747 ****       228.2500  27.7500  14.7500 Du        
   9748 ****       228.2500  28.0000  12.2500 Du        
   9749 ****       228.2500  28.0000  12.5000 Du        
   9750 ****       228.2500  28.0000  12.7500 Du        
   9751 ****       228.2500  28.0000  13.0000 Du        
   9752 ****       228.2500  28.0000  13.2500 Du        
   9753 ****       228.2500  28.0000  13.5000 Du        
   9754 ****       228.2500  28.0000  13.7500 Du        
   9755 ****       228.2500  28.0000  14.0000 Du        
   9756 ****       228.2500  28.0000  14.2500 Du        
   9757 ****       228.2500  28.0000  14.5000 Du        
   9758 ****       228.2500  28.2500  12.5000 Du        
   9759 ****       228.2500  28.2500  12.7500 Du        
   9760 ****       228.2500  28.2500  13.0000 Du        
   9761 ****       228.2500  28.2500  13.2500 Du        
   9762 ****       228.2500  28.2500  13.5000 Du        
   9763 ****       228.2500  28.2500  13.7500 Du        
   9764 ****       228.2500  28.2500  14.0000 Du        
   9765 ****       228.2500  28.2500  14.2500 Du        
   9766 ****       228.2500  28.5000  12.7500 Du        
   9767 ****       228.2500  28.5000  13.0000 Du        
   9768 ****       228.2500  28.5000  13.2500 Du        
   9769 ****       228.2500  28.5000  13.5000 Du        
   9770 ****       228.2500  28.5000  13.7500 Du        
   9771 ****       228.2500  28.5000  14.0000 Du        
   9772 ****       228.2500  28.7500  13.0000 Du        
   9773 ****       228.2500  28.7500  13.2500 Du        
   9774 ****       228.2500  28.7500  13.5000 Du        
   9775 ****       228.2500  28.7500  13.7500 Du        
   9776 ****       228.2500  28.7500  14.0000 Du        
   9777 ****       228.2500  29.0000  13.2500 Du        
   9778 ****       228.2500  29.0000  13.5000 Du        
   9779 ****       228.5000  10.0000  15.2500 Du        
   9780 ****       228.5000  10.0000  15.5000 Du        
   9781 ****       228.5000  10.2500  14.7500 Du        
   9782 ****       228.5000  10.2500  15.0000 Du        
   9783 ****       228.5000  10.2500  15.2500 Du        
   9784 ****       228.5000  10.2500  15.5000 Du        
   9785 ****       228.5000  10.2500  15.7500 Du        
   9786 ****       228.5000  10.5000  14.7500 Du        
   9787 ****       228.5000  10.5000  15.0000 Du        
   9788 ****       228.5000  10.5000  15.2500 Du        
   9789 ****       228.5000  10.5000  15.5000 Du        
   9790 ****       228.5000  10.5000  15.7500 Du        
   9791 ****       228.5000  10.5000  16.0000 Du        
   9792 ****       228.5000  10.7500  14.2500 Du        
   9793 ****       228.5000  10.7500  14.5000 Du        
   9794 ****       228.5000  10.7500  14.7500 Du        
   9795 ****       228.5000  10.7500  15.0000 Du        
   9796 ****       228.5000  10.7500  15.2500 Du        
   9797 ****       228.5000  10.7500  15.5000 Du        
   9798 ****       228.5000  10.7500  15.7500 Du        
   9799 ****       228.5000  10.7500  16.0000 Du        
   9800 ****       228.5000  10.7500  16.2500 Du        
   9801 ****       228.5000  11.0000  14.0000 Du        
   9802 ****       228.5000  11.0000  14.2500 Du        
   9803 ****       228.5000  11.0000  14.5000 Du        
   9804 ****       228.5000  11.0000  14.7500 Du        
   9805 ****       228.5000  11.0000  15.0000 Du        
   9806 ****       228.5000  11.0000  15.2500 Du        
   9807 ****       228.5000  11.0000  15.5000 Du        
   9808 ****       228.5000  11.0000  15.7500 Du        
   9809 ****       228.5000  11.0000  16.0000 Du        
   9810 ****       228.5000  11.0000  16.2500 Du        
   9811 ****       228.5000  11.2500  13.7500 Du        
   9812 ****       228.5000  11.2500  14.0000 Du        
   9813 ****       228.5000  11.2500  14.2500 Du        
   9814 ****       228.5000  11.2500  14.5000 Du        
   9815 ****       228.5000  11.2500  14.7500 Du        
   9816 ****       228.5000  11.2500  15.0000 Du        
   9817 ****       228.5000  11.2500  15.2500 Du        
   9818 ****       228.5000  11.2500  15.5000 Du        
   9819 ****       228.5000  11.2500  15.7500 Du        
   9820 ****       228.5000  11.2500  16.0000 Du        
   9821 ****       228.5000  11.2500  16.2500 Du        
   9822 ****       228.5000  11.2500  16.5000 Du        
   9823 ****       228.5000  11.5000  13.7500 Du        
   9824 ****       228.5000  11.5000  14.0000 Du        
   9825 ****       228.5000  11.5000  14.2500 Du        
   9826 ****       228.5000  11.5000  14.5000 Du        
   9827 ****       228.5000  11.5000  14.7500 Du        
   9828 ****       228.5000  11.5000  15.0000 Du        
   9829 ****       228.5000  11.5000  15.2500 Du        
   9830 ****       228.5000  11.5000  15.5000 Du        
   9831 ****       228.5000  11.5000  15.7500 Du        
   9832 ****       228.5000  11.5000  16.0000 Du        
   9833 ****       228.5000  11.5000  16.2500 Du        
   9834 ****       228.5000  11.5000  16.5000 Du        
   9835 ****       228.5000  11.5000  16.7500 Du        
   9836 ****       228.5000  11.7500  13.5000 Du        
   9837 ****       228.5000  11.7500  13.7500 Du        
   9838 ****       228.5000  11.7500  14.0000 Du        
   9839 ****       228.5000  11.7500  14.2500 Du        
   9840 ****       228.5000  11.7500  14.5000 Du        
   9841 ****       228.5000  11.7500  14.7500 Du        
   9842 ****       228.5000  11.7500  15.0000 Du        
   9843 ****       228.5000  11.7500  15.2500 Du        
   9844 ****       228.5000  11.7500  15.5000 Du        
   9845 ****       228.5000  11.7500  15.7500 Du        
   9846 ****       228.5000  11.7500  16.0000 Du        
   9847 ****       228.5000  11.7500  16.2500 Du        
   9848 ****       228.5000  11.7500  16.5000 Du        
   9849 ****       228.5000  11.7500  16.7500 Du        
   9850 ****       228.5000  11.7500  17.0000 Du        
   9851 ****       228.5000  11.7500  17.2500 Du        
   9852 ****       228.5000  12.0000  13.5000 Du        
   9853 ****       228.5000  12.0000  13.7500 Du        
   9854 ****       228.5000  12.0000  14.0000 Du        
   9855 ****       228.5000  12.0000  14.2500 Du        
   9856 ****       228.5000  12.0000  14.5000 Du        
   9857 ****       228.5000  12.0000  14.7500 Du        
   9858 ****       228.5000  12.0000  15.0000 Du        
   9859 ****       228.5000  12.0000  15.2500 Du        
   9860 ****       228.5000  12.0000  15.5000 Du        
   9861 ****       228.5000  12.0000  15.7500 Du        
   9862 ****       228.5000  12.0000  16.0000 Du        
   9863 ****       228.5000  12.0000  16.2500 Du        
   9864 ****       228.5000  12.0000  16.5000 Du        
   9865 ****       228.5000  12.0000  16.7500 Du        
   9866 ****       228.5000  12.0000  17.0000 Du        
   9867 ****       228.5000  12.0000  17.2500 Du        
   9868 ****       228.5000  12.0000  17.5000 Du        
   9869 ****       228.5000  12.0000  17.7500 Du        
   9870 ****       228.5000  12.0000  18.0000 Du        
   9871 ****       228.5000  12.2500  13.7500 Du        
   9872 ****       228.5000  12.2500  14.0000 Du        
   9873 ****       228.5000  12.2500  14.2500 Du        
   9874 ****       228.5000  12.2500  14.5000 Du        
   9875 ****       228.5000  12.2500  14.7500 Du        
   9876 ****       228.5000  12.2500  15.0000 Du        
   9877 ****       228.5000  12.2500  15.2500 Du        
   9878 ****       228.5000  12.2500  15.5000 Du        
   9879 ****       228.5000  12.2500  15.7500 Du        
   9880 ****       228.5000  12.2500  16.0000 Du        
   9881 ****       228.5000  12.2500  16.2500 Du        
   9882 ****       228.5000  12.2500  16.5000 Du        
   9883 ****       228.5000  12.2500  16.7500 Du        
   9884 ****       228.5000  12.2500  17.0000 Du        
   9885 ****       228.5000  12.2500  17.2500 Du        
   9886 ****       228.5000  12.2500  17.5000 Du        
   9887 ****       228.5000  12.2500  17.7500 Du        
   9888 ****       228.5000  12.2500  18.0000 Du        
   9889 ****       228.5000  12.2500  18.2500 Du        
   9890 ****       228.5000  12.2500  18.5000 Du        
   9891 ****       228.5000  12.2500  18.7500 Du        
   9892 ****       228.5000  12.5000  13.7500 Du        
   9893 ****       228.5000  12.5000  14.0000 Du        
   9894 ****       228.5000  12.5000  14.2500 Du        
   9895 ****       228.5000  12.5000  14.5000 Du        
   9896 ****       228.5000  12.5000  14.7500 Du        
   9897 ****       228.5000  12.5000  17.2500 Du        
   9898 ****       228.5000  12.5000  17.5000 Du        
   9899 ****       228.5000  12.5000  17.7500 Du        
   9900 ****       228.5000  12.5000  18.0000 Du        
   9901 ****       228.5000  12.5000  18.2500 Du        
   9902 ****       228.5000  12.5000  18.5000 Du        
   9903 ****       228.5000  12.5000  18.7500 Du        
   9904 ****       228.5000  12.7500  13.7500 Du        
   9905 ****       228.5000  12.7500  14.0000 Du        
   9906 ****       228.5000  12.7500  14.2500 Du        
   9907 ****       228.5000  12.7500  14.5000 Du        
   9908 ****       228.5000  12.7500  17.5000 Du        
   9909 ****       228.5000  12.7500  17.7500 Du        
   9910 ****       228.5000  12.7500  18.0000 Du        
   9911 ****       228.5000  12.7500  18.2500 Du        
   9912 ****       228.5000  12.7500  18.5000 Du        
   9913 ****       228.5000  13.0000  13.7500 Du        
   9914 ****       228.5000  13.0000  14.0000 Du        
   9915 ****       228.5000  13.0000  14.2500 Du        
   9916 ****       228.5000  13.0000  14.5000 Du        
   9917 ****       228.5000  13.0000  17.7500 Du        
   9918 ****       228.5000  13.0000  18.0000 Du        
   9919 ****       228.5000  13.0000  18.2500 Du        
   9920 ****       228.5000  13.2500  14.0000 Du        
   9921 ****       228.5000  13.2500  14.2500 Du        
   9922 ****       228.5000  13.5000  14.0000 Du        
   9923 ****       228.5000  15.2500  14.0000 Du        
   9924 ****       228.5000  15.2500  14.2500 Du        
   9925 ****       228.5000  15.5000  14.0000 Du        
   9926 ****       228.5000  15.5000  14.2500 Du        
   9927 ****       228.5000  15.7500  14.0000 Du        
   9928 ****       228.5000  16.0000  14.0000 Du        
   9929 ****       228.5000  16.0000  15.5000 Du        
   9930 ****       228.5000  16.2500  15.5000 Du        
   9931 ****       228.5000  16.5000  15.0000 Du        
   9932 ****       228.5000  16.5000  15.2500 Du        
   9933 ****       228.5000  16.7500  15.2500 Du        
   9934 ****       228.5000  17.0000  15.2500 Du        
   9935 ****       228.5000  21.0000  12.0000 Du        
   9936 ****       228.5000  21.0000  12.2500 Du        
   9937 ****       228.5000  21.0000  12.5000 Du        
   9938 ****       228.5000  21.0000  12.7500 Du        
   9939 ****       228.5000  21.2500  12.0000 Du        
   9940 ****       228.5000  21.2500  12.2500 Du        
   9941 ****       228.5000  21.2500  12.5000 Du        
   9942 ****       228.5000  21.2500  12.7500 Du        
   9943 ****       228.5000  21.5000  11.2500 Du        
   9944 ****       228.5000  21.5000  11.5000 Du        
   9945 ****       228.5000  21.5000  11.7500 Du        
   9946 ****       228.5000  21.5000  12.0000 Du        
   9947 ****       228.5000  21.5000  12.2500 Du        
   9948 ****       228.5000  21.5000  12.5000 Du        
   9949 ****       228.5000  21.5000  12.7500 Du        
   9950 ****       228.5000  21.5000  13.0000 Du        
   9951 ****       228.5000  21.7500  11.2500 Du        
   9952 ****       228.5000  21.7500  11.5000 Du        
   9953 ****       228.5000  21.7500  11.7500 Du        
   9954 ****       228.5000  21.7500  12.0000 Du        
   9955 ****       228.5000  21.7500  12.2500 Du        
   9956 ****       228.5000  21.7500  12.5000 Du        
   9957 ****       228.5000  21.7500  12.7500 Du        
   9958 ****       228.5000  21.7500  13.0000 Du        
   9959 ****       228.5000  21.7500  13.2500 Du        
   9960 ****       228.5000  22.0000  11.0000 Du        
   9961 ****       228.5000  22.0000  11.2500 Du        
   9962 ****       228.5000  22.0000  11.5000 Du        
   9963 ****       228.5000  22.0000  11.7500 Du        
   9964 ****       228.5000  22.0000  12.0000 Du        
   9965 ****       228.5000  22.0000  12.2500 Du        
   9966 ****       228.5000  22.0000  12.5000 Du        
   9967 ****       228.5000  22.0000  12.7500 Du        
   9968 ****       228.5000  22.0000  13.0000 Du        
   9969 ****       228.5000  22.0000  13.2500 Du        
   9970 ****       228.5000  22.2500  11.0000 Du        
   9971 ****       228.5000  22.2500  11.2500 Du        
   9972 ****       228.5000  22.2500  11.5000 Du        
   9973 ****       228.5000  22.2500  11.7500 Du        
   9974 ****       228.5000  22.2500  12.0000 Du        
   9975 ****       228.5000  22.2500  12.2500 Du        
   9976 ****       228.5000  22.2500  12.5000 Du        
   9977 ****       228.5000  22.2500  12.7500 Du        
   9978 ****       228.5000  22.2500  13.0000 Du        
   9979 ****       228.5000  22.2500  13.2500 Du        
   9980 ****       228.5000  22.5000  10.7500 Du        
   9981 ****       228.5000  22.5000  11.0000 Du        
   9982 ****       228.5000  22.5000  11.2500 Du        
   9983 ****       228.5000  22.5000  11.5000 Du        
   9984 ****       228.5000  22.5000  11.7500 Du        
   9985 ****       228.5000  22.5000  12.0000 Du        
   9986 ****       228.5000  22.5000  12.2500 Du        
   9987 ****       228.5000  22.5000  12.5000 Du        
   9988 ****       228.5000  22.5000  12.7500 Du        
   9989 ****       228.5000  22.5000  13.0000 Du        
   9990 ****       228.5000  22.5000  13.2500 Du        
   9991 ****       228.5000  22.5000  13.5000 Du        
   9992 ****       228.5000  22.7500  10.7500 Du        
   9993 ****       228.5000  22.7500  11.0000 Du        
   9994 ****       228.5000  22.7500  11.2500 Du        
   9995 ****       228.5000  22.7500  11.5000 Du        
   9996 ****       228.5000  22.7500  11.7500 Du        
   9997 ****       228.5000  22.7500  12.0000 Du        
   9998 ****       228.5000  22.7500  12.2500 Du        
   9999 ****       228.5000  22.7500  12.5000 Du        
  10000 ****       228.5000  22.7500  12.7500 Du        
  10001 ****       228.5000  22.7500  13.0000 Du        
  10002 ****       228.5000  22.7500  13.2500 Du        
  10003 ****       228.5000  22.7500  13.5000 Du        
  10004 ****       228.5000  23.0000  10.7500 Du        
  10005 ****       228.5000  23.0000  11.0000 Du        
  10006 ****       228.5000  23.0000  11.2500 Du        
  10007 ****       228.5000  23.0000  11.5000 Du        
  10008 ****       228.5000  23.0000  11.7500 Du        
  10009 ****       228.5000  23.0000  12.0000 Du        
  10010 ****       228.5000  23.0000  12.2500 Du        
  10011 ****       228.5000  23.0000  12.5000 Du        
  10012 ****       228.5000  23.0000  12.7500 Du        
  10013 ****       228.5000  23.0000  13.0000 Du        
  10014 ****       228.5000  23.0000  13.2500 Du        
  10015 ****       228.5000  23.0000  13.5000 Du        
  10016 ****       228.5000  23.2500  10.5000 Du        
  10017 ****       228.5000  23.2500  10.7500 Du        
  10018 ****       228.5000  23.2500  11.0000 Du        
  10019 ****       228.5000  23.2500  11.2500 Du        
  10020 ****       228.5000  23.2500  11.5000 Du        
  10021 ****       228.5000  23.2500  11.7500 Du        
  10022 ****       228.5000  23.2500  12.0000 Du        
  10023 ****       228.5000  23.2500  12.2500 Du        
  10024 ****       228.5000  23.2500  12.5000 Du        
  10025 ****       228.5000  23.2500  12.7500 Du        
  10026 ****       228.5000  23.2500  13.0000 Du        
  10027 ****       228.5000  23.2500  13.2500 Du        
  10028 ****       228.5000  23.2500  13.5000 Du        
  10029 ****       228.5000  23.2500  13.7500 Du        
  10030 ****       228.5000  23.5000  10.5000 Du        
  10031 ****       228.5000  23.5000  10.7500 Du        
  10032 ****       228.5000  23.5000  11.0000 Du        
  10033 ****       228.5000  23.5000  11.2500 Du        
  10034 ****       228.5000  23.5000  11.5000 Du        
  10035 ****       228.5000  23.5000  11.7500 Du        
  10036 ****       228.5000  23.5000  12.0000 Du        
  10037 ****       228.5000  23.5000  12.2500 Du        
  10038 ****       228.5000  23.5000  12.5000 Du        
  10039 ****       228.5000  23.5000  12.7500 Du        
  10040 ****       228.5000  23.5000  13.0000 Du        
  10041 ****       228.5000  23.5000  13.2500 Du        
  10042 ****       228.5000  23.5000  13.5000 Du        
  10043 ****       228.5000  23.5000  13.7500 Du        
  10044 ****       228.5000  23.7500  10.5000 Du        
  10045 ****       228.5000  23.7500  10.7500 Du        
  10046 ****       228.5000  23.7500  11.0000 Du        
  10047 ****       228.5000  23.7500  11.2500 Du        
  10048 ****       228.5000  23.7500  11.5000 Du        
  10049 ****       228.5000  23.7500  11.7500 Du        
  10050 ****       228.5000  23.7500  12.0000 Du        
  10051 ****       228.5000  23.7500  12.2500 Du        
  10052 ****       228.5000  23.7500  12.5000 Du        
  10053 ****       228.5000  23.7500  12.7500 Du        
  10054 ****       228.5000  23.7500  13.0000 Du        
  10055 ****       228.5000  23.7500  13.2500 Du        
  10056 ****       228.5000  23.7500  13.5000 Du        
  10057 ****       228.5000  23.7500  13.7500 Du        
  10058 ****       228.5000  23.7500  14.0000 Du        
  10059 ****       228.5000  24.0000  11.0000 Du        
  10060 ****       228.5000  24.0000  11.2500 Du        
  10061 ****       228.5000  24.0000  11.5000 Du        
  10062 ****       228.5000  24.0000  11.7500 Du        
  10063 ****       228.5000  24.0000  12.0000 Du        
  10064 ****       228.5000  24.0000  12.2500 Du        
  10065 ****       228.5000  24.0000  12.5000 Du        
  10066 ****       228.5000  24.0000  12.7500 Du        
  10067 ****       228.5000  24.0000  13.0000 Du        
  10068 ****       228.5000  24.0000  13.2500 Du        
  10069 ****       228.5000  24.0000  13.5000 Du        
  10070 ****       228.5000  24.0000  13.7500 Du        
  10071 ****       228.5000  24.0000  14.0000 Du        
  10072 ****       228.5000  24.0000  14.2500 Du        
  10073 ****       228.5000  24.2500  11.2500 Du        
  10074 ****       228.5000  24.2500  11.5000 Du        
  10075 ****       228.5000  24.2500  11.7500 Du        
  10076 ****       228.5000  24.2500  12.0000 Du        
  10077 ****       228.5000  24.2500  12.2500 Du        
  10078 ****       228.5000  24.2500  12.5000 Du        
  10079 ****       228.5000  24.2500  12.7500 Du        
  10080 ****       228.5000  24.2500  13.0000 Du        
  10081 ****       228.5000  24.2500  13.2500 Du        
  10082 ****       228.5000  24.2500  13.5000 Du        
  10083 ****       228.5000  24.2500  13.7500 Du        
  10084 ****       228.5000  24.2500  14.0000 Du        
  10085 ****       228.5000  24.2500  14.2500 Du        
  10086 ****       228.5000  24.5000  11.7500 Du        
  10087 ****       228.5000  24.5000  12.0000 Du        
  10088 ****       228.5000  24.5000  12.2500 Du        
  10089 ****       228.5000  24.5000  12.5000 Du        
  10090 ****       228.5000  24.5000  12.7500 Du        
  10091 ****       228.5000  24.5000  13.0000 Du        
  10092 ****       228.5000  24.5000  13.2500 Du        
  10093 ****       228.5000  24.5000  13.5000 Du        
  10094 ****       228.5000  24.5000  13.7500 Du        
  10095 ****       228.5000  24.5000  14.0000 Du        
  10096 ****       228.5000  24.5000  14.2500 Du        
  10097 ****       228.5000  24.5000  14.5000 Du        
  10098 ****       228.5000  24.7500  12.0000 Du        
  10099 ****       228.5000  24.7500  12.2500 Du        
  10100 ****       228.5000  24.7500  12.5000 Du        
  10101 ****       228.5000  24.7500  12.7500 Du        
  10102 ****       228.5000  24.7500  13.0000 Du        
  10103 ****       228.5000  24.7500  13.2500 Du        
  10104 ****       228.5000  24.7500  13.5000 Du        
  10105 ****       228.5000  24.7500  13.7500 Du        
  10106 ****       228.5000  24.7500  14.0000 Du        
  10107 ****       228.5000  24.7500  14.2500 Du        
  10108 ****       228.5000  24.7500  14.5000 Du        
  10109 ****       228.5000  24.7500  14.7500 Du        
  10110 ****       228.5000  25.0000  12.2500 Du        
  10111 ****       228.5000  25.0000  12.5000 Du        
  10112 ****       228.5000  25.0000  12.7500 Du        
  10113 ****       228.5000  25.0000  13.0000 Du        
  10114 ****       228.5000  25.0000  13.2500 Du        
  10115 ****       228.5000  25.0000  13.5000 Du        
  10116 ****       228.5000  25.0000  13.7500 Du        
  10117 ****       228.5000  25.0000  14.0000 Du        
  10118 ****       228.5000  25.0000  14.2500 Du        
  10119 ****       228.5000  25.0000  14.5000 Du        
  10120 ****       228.5000  25.0000  14.7500 Du        
  10121 ****       228.5000  25.2500  12.2500 Du        
  10122 ****       228.5000  25.2500  12.5000 Du        
  10123 ****       228.5000  25.2500  12.7500 Du        
  10124 ****       228.5000  25.2500  13.0000 Du        
  10125 ****       228.5000  25.2500  13.2500 Du        
  10126 ****       228.5000  25.2500  13.5000 Du        
  10127 ****       228.5000  25.2500  13.7500 Du        
  10128 ****       228.5000  25.2500  14.0000 Du        
  10129 ****       228.5000  25.2500  14.2500 Du        
  10130 ****       228.5000  25.2500  14.5000 Du        
  10131 ****       228.5000  25.2500  14.7500 Du        
  10132 ****       228.5000  25.5000  12.5000 Du        
  10133 ****       228.5000  25.5000  12.7500 Du        
  10134 ****       228.5000  25.5000  13.0000 Du        
  10135 ****       228.5000  25.5000  13.2500 Du        
  10136 ****       228.5000  25.5000  13.5000 Du        
  10137 ****       228.5000  25.5000  13.7500 Du        
  10138 ****       228.5000  25.5000  14.0000 Du        
  10139 ****       228.5000  25.5000  14.2500 Du        
  10140 ****       228.5000  25.5000  14.5000 Du        
  10141 ****       228.5000  25.5000  14.7500 Du        
  10142 ****       228.5000  25.5000  15.0000 Du        
  10143 ****       228.5000  25.7500  12.5000 Du        
  10144 ****       228.5000  25.7500  12.7500 Du        
  10145 ****       228.5000  25.7500  13.0000 Du        
  10146 ****       228.5000  25.7500  13.2500 Du        
  10147 ****       228.5000  25.7500  13.5000 Du        
  10148 ****       228.5000  25.7500  13.7500 Du        
  10149 ****       228.5000  25.7500  14.0000 Du        
  10150 ****       228.5000  25.7500  14.2500 Du        
  10151 ****       228.5000  25.7500  14.5000 Du        
  10152 ****       228.5000  25.7500  14.7500 Du        
  10153 ****       228.5000  25.7500  15.0000 Du        
  10154 ****       228.5000  26.0000  12.5000 Du        
  10155 ****       228.5000  26.0000  12.7500 Du        
  10156 ****       228.5000  26.0000  13.0000 Du        
  10157 ****       228.5000  26.0000  13.2500 Du        
  10158 ****       228.5000  26.0000  13.5000 Du        
  10159 ****       228.5000  26.0000  13.7500 Du        
  10160 ****       228.5000  26.0000  14.0000 Du        
  10161 ****       228.5000  26.0000  14.2500 Du        
  10162 ****       228.5000  26.0000  14.5000 Du        
  10163 ****       228.5000  26.0000  14.7500 Du        
  10164 ****       228.5000  26.0000  15.0000 Du        
  10165 ****       228.5000  26.2500  12.5000 Du        
  10166 ****       228.5000  26.2500  12.7500 Du        
  10167 ****       228.5000  26.2500  13.0000 Du        
  10168 ****       228.5000  26.2500  13.2500 Du        
  10169 ****       228.5000  26.2500  13.5000 Du        
  10170 ****       228.5000  26.2500  13.7500 Du        
  10171 ****       228.5000  26.2500  14.0000 Du        
  10172 ****       228.5000  26.2500  14.2500 Du        
  10173 ****       228.5000  26.2500  14.5000 Du        
  10174 ****       228.5000  26.2500  14.7500 Du        
  10175 ****       228.5000  26.2500  15.0000 Du        
  10176 ****       228.5000  26.5000  12.2500 Du        
  10177 ****       228.5000  26.5000  12.5000 Du        
  10178 ****       228.5000  26.5000  12.7500 Du        
  10179 ****       228.5000  26.5000  13.0000 Du        
  10180 ****       228.5000  26.5000  13.2500 Du        
  10181 ****       228.5000  26.5000  13.5000 Du        
  10182 ****       228.5000  26.5000  13.7500 Du        
  10183 ****       228.5000  26.5000  14.0000 Du        
  10184 ****       228.5000  26.5000  14.2500 Du        
  10185 ****       228.5000  26.5000  14.5000 Du        
  10186 ****       228.5000  26.5000  14.7500 Du        
  10187 ****       228.5000  26.5000  15.0000 Du        
  10188 ****       228.5000  26.7500  12.2500 Du        
  10189 ****       228.5000  26.7500  12.5000 Du        
  10190 ****       228.5000  26.7500  12.7500 Du        
  10191 ****       228.5000  26.7500  13.0000 Du        
  10192 ****       228.5000  26.7500  13.2500 Du        
  10193 ****       228.5000  26.7500  13.5000 Du        
  10194 ****       228.5000  26.7500  13.7500 Du        
  10195 ****       228.5000  26.7500  14.0000 Du        
  10196 ****       228.5000  26.7500  14.2500 Du        
  10197 ****       228.5000  26.7500  14.5000 Du        
  10198 ****       228.5000  26.7500  14.7500 Du        
  10199 ****       228.5000  26.7500  15.0000 Du        
  10200 ****       228.5000  27.0000  12.2500 Du        
  10201 ****       228.5000  27.0000  12.5000 Du        
  10202 ****       228.5000  27.0000  12.7500 Du        
  10203 ****       228.5000  27.0000  13.0000 Du        
  10204 ****       228.5000  27.0000  13.2500 Du        
  10205 ****       228.5000  27.0000  13.5000 Du        
  10206 ****       228.5000  27.0000  13.7500 Du        
  10207 ****       228.5000  27.0000  14.0000 Du        
  10208 ****       228.5000  27.0000  14.2500 Du        
  10209 ****       228.5000  27.0000  14.5000 Du        
  10210 ****       228.5000  27.0000  14.7500 Du        
  10211 ****       228.5000  27.0000  15.0000 Du        
  10212 ****       228.5000  27.2500  12.2500 Du        
  10213 ****       228.5000  27.2500  12.5000 Du        
  10214 ****       228.5000  27.2500  12.7500 Du        
  10215 ****       228.5000  27.2500  13.0000 Du        
  10216 ****       228.5000  27.2500  13.2500 Du        
  10217 ****       228.5000  27.2500  13.5000 Du        
  10218 ****       228.5000  27.2500  13.7500 Du        
  10219 ****       228.5000  27.2500  14.0000 Du        
  10220 ****       228.5000  27.2500  14.2500 Du        
  10221 ****       228.5000  27.2500  14.5000 Du        
  10222 ****       228.5000  27.2500  14.7500 Du        
  10223 ****       228.5000  27.2500  15.0000 Du        
  10224 ****       228.5000  27.5000  12.2500 Du        
  10225 ****       228.5000  27.5000  12.5000 Du        
  10226 ****       228.5000  27.5000  12.7500 Du        
  10227 ****       228.5000  27.5000  13.0000 Du        
  10228 ****       228.5000  27.5000  13.2500 Du        
  10229 ****       228.5000  27.5000  13.5000 Du        
  10230 ****       228.5000  27.5000  13.7500 Du        
  10231 ****       228.5000  27.5000  14.0000 Du        
  10232 ****       228.5000  27.5000  14.2500 Du        
  10233 ****       228.5000  27.5000  14.5000 Du        
  10234 ****       228.5000  27.5000  14.7500 Du        
  10235 ****       228.5000  27.5000  15.0000 Du        
  10236 ****       228.5000  27.7500  12.2500 Du        
  10237 ****       228.5000  27.7500  12.5000 Du        
  10238 ****       228.5000  27.7500  12.7500 Du        
  10239 ****       228.5000  27.7500  13.0000 Du        
  10240 ****       228.5000  27.7500  13.2500 Du        
  10241 ****       228.5000  27.7500  13.5000 Du        
  10242 ****       228.5000  27.7500  13.7500 Du        
  10243 ****       228.5000  27.7500  14.0000 Du        
  10244 ****       228.5000  27.7500  14.2500 Du        
  10245 ****       228.5000  27.7500  14.5000 Du        
  10246 ****       228.5000  27.7500  14.7500 Du        
  10247 ****       228.5000  28.0000  12.2500 Du        
  10248 ****       228.5000  28.0000  12.5000 Du        
  10249 ****       228.5000  28.0000  12.7500 Du        
  10250 ****       228.5000  28.0000  13.0000 Du        
  10251 ****       228.5000  28.0000  13.2500 Du        
  10252 ****       228.5000  28.0000  13.5000 Du        
  10253 ****       228.5000  28.0000  13.7500 Du        
  10254 ****       228.5000  28.0000  14.0000 Du        
  10255 ****       228.5000  28.0000  14.2500 Du        
  10256 ****       228.5000  28.0000  14.5000 Du        
  10257 ****       228.5000  28.2500  12.5000 Du        
  10258 ****       228.5000  28.2500  12.7500 Du        
  10259 ****       228.5000  28.2500  13.0000 Du        
  10260 ****       228.5000  28.2500  13.2500 Du        
  10261 ****       228.5000  28.2500  13.5000 Du        
  10262 ****       228.5000  28.2500  13.7500 Du        
  10263 ****       228.5000  28.2500  14.0000 Du        
  10264 ****       228.5000  28.2500  14.2500 Du        
  10265 ****       228.5000  28.5000  12.7500 Du        
  10266 ****       228.5000  28.5000  13.0000 Du        
  10267 ****       228.5000  28.5000  13.2500 Du        
  10268 ****       228.5000  28.5000  13.5000 Du        
  10269 ****       228.5000  28.5000  13.7500 Du        
  10270 ****       228.5000  28.5000  14.0000 Du        
  10271 ****       228.5000  28.7500  13.0000 Du        
  10272 ****       228.5000  28.7500  13.2500 Du        
  10273 ****       228.5000  28.7500  13.5000 Du        
  10274 ****       228.5000  28.7500  13.7500 Du        
  10275 ****       228.5000  29.0000  13.2500 Du        
  10276 ****       228.5000  29.0000  13.5000 Du        
  10277 ****       228.7500  10.0000  15.2500 Du        
  10278 ****       228.7500  10.0000  15.5000 Du        
  10279 ****       228.7500  10.0000  15.7500 Du        
  10280 ****       228.7500  10.2500  15.0000 Du        
  10281 ****       228.7500  10.2500  15.2500 Du        
  10282 ****       228.7500  10.2500  15.5000 Du        
  10283 ****       228.7500  10.2500  15.7500 Du        
  10284 ****       228.7500  10.2500  16.0000 Du        
  10285 ****       228.7500  10.5000  14.7500 Du        
  10286 ****       228.7500  10.5000  15.0000 Du        
  10287 ****       228.7500  10.5000  15.2500 Du        
  10288 ****       228.7500  10.5000  15.5000 Du        
  10289 ****       228.7500  10.5000  15.7500 Du        
  10290 ****       228.7500  10.5000  16.0000 Du        
  10291 ****       228.7500  10.5000  16.2500 Du        
  10292 ****       228.7500  10.7500  14.2500 Du        
  10293 ****       228.7500  10.7500  14.5000 Du        
  10294 ****       228.7500  10.7500  14.7500 Du        
  10295 ****       228.7500  10.7500  15.0000 Du        
  10296 ****       228.7500  10.7500  15.2500 Du        
  10297 ****       228.7500  10.7500  15.5000 Du        
  10298 ****       228.7500  10.7500  15.7500 Du        
  10299 ****       228.7500  10.7500  16.0000 Du        
  10300 ****       228.7500  10.7500  16.2500 Du        
  10301 ****       228.7500  10.7500  16.5000 Du        
  10302 ****       228.7500  11.0000  14.0000 Du        
  10303 ****       228.7500  11.0000  14.2500 Du        
  10304 ****       228.7500  11.0000  14.5000 Du        
  10305 ****       228.7500  11.0000  14.7500 Du        
  10306 ****       228.7500  11.0000  15.0000 Du        
  10307 ****       228.7500  11.0000  15.2500 Du        
  10308 ****       228.7500  11.0000  15.5000 Du        
  10309 ****       228.7500  11.0000  15.7500 Du        
  10310 ****       228.7500  11.0000  16.0000 Du        
  10311 ****       228.7500  11.0000  16.2500 Du        
  10312 ****       228.7500  11.0000  16.5000 Du        
  10313 ****       228.7500  11.2500  13.7500 Du        
  10314 ****       228.7500  11.2500  14.0000 Du        
  10315 ****       228.7500  11.2500  14.2500 Du        
  10316 ****       228.7500  11.2500  14.5000 Du        
  10317 ****       228.7500  11.2500  14.7500 Du        
  10318 ****       228.7500  11.2500  15.0000 Du        
  10319 ****       228.7500  11.2500  15.2500 Du        
  10320 ****       228.7500  11.2500  15.5000 Du        
  10321 ****       228.7500  11.2500  15.7500 Du        
  10322 ****       228.7500  11.2500  16.0000 Du        
  10323 ****       228.7500  11.2500  16.2500 Du        
  10324 ****       228.7500  11.2500  16.5000 Du        
  10325 ****       228.7500  11.2500  16.7500 Du        
  10326 ****       228.7500  11.5000  13.7500 Du        
  10327 ****       228.7500  11.5000  14.0000 Du        
  10328 ****       228.7500  11.5000  14.2500 Du        
  10329 ****       228.7500  11.5000  14.5000 Du        
  10330 ****       228.7500  11.5000  14.7500 Du        
  10331 ****       228.7500  11.5000  15.0000 Du        
  10332 ****       228.7500  11.5000  15.2500 Du        
  10333 ****       228.7500  11.5000  15.5000 Du        
  10334 ****       228.7500  11.5000  15.7500 Du        
  10335 ****       228.7500  11.5000  16.0000 Du        
  10336 ****       228.7500  11.5000  16.2500 Du        
  10337 ****       228.7500  11.5000  16.5000 Du        
  10338 ****       228.7500  11.5000  16.7500 Du        
  10339 ****       228.7500  11.5000  17.0000 Du        
  10340 ****       228.7500  11.7500  13.5000 Du        
  10341 ****       228.7500  11.7500  13.7500 Du        
  10342 ****       228.7500  11.7500  14.0000 Du        
  10343 ****       228.7500  11.7500  14.2500 Du        
  10344 ****       228.7500  11.7500  14.5000 Du        
  10345 ****       228.7500  11.7500  14.7500 Du        
  10346 ****       228.7500  11.7500  15.0000 Du        
  10347 ****       228.7500  11.7500  15.2500 Du        
  10348 ****       228.7500  11.7500  15.5000 Du        
  10349 ****       228.7500  11.7500  15.7500 Du        
  10350 ****       228.7500  11.7500  16.0000 Du        
  10351 ****       228.7500  11.7500  16.2500 Du        
  10352 ****       228.7500  11.7500  16.5000 Du        
  10353 ****       228.7500  11.7500  16.7500 Du        
  10354 ****       228.7500  11.7500  17.0000 Du        
  10355 ****       228.7500  11.7500  17.2500 Du        
  10356 ****       228.7500  11.7500  17.5000 Du        
  10357 ****       228.7500  11.7500  17.7500 Du        
  10358 ****       228.7500  12.0000  13.5000 Du        
  10359 ****       228.7500  12.0000  13.7500 Du        
  10360 ****       228.7500  12.0000  14.0000 Du        
  10361 ****       228.7500  12.0000  14.2500 Du        
  10362 ****       228.7500  12.0000  14.5000 Du        
  10363 ****       228.7500  12.0000  14.7500 Du        
  10364 ****       228.7500  12.0000  15.0000 Du        
  10365 ****       228.7500  12.0000  15.2500 Du        
  10366 ****       228.7500  12.0000  15.5000 Du        
  10367 ****       228.7500  12.0000  15.7500 Du        
  10368 ****       228.7500  12.0000  16.0000 Du        
  10369 ****       228.7500  12.0000  16.2500 Du        
  10370 ****       228.7500  12.0000  16.5000 Du        
  10371 ****       228.7500  12.0000  16.7500 Du        
  10372 ****       228.7500  12.0000  17.0000 Du        
  10373 ****       228.7500  12.0000  17.2500 Du        
  10374 ****       228.7500  12.0000  17.5000 Du        
  10375 ****       228.7500  12.0000  17.7500 Du        
  10376 ****       228.7500  12.0000  18.0000 Du        
  10377 ****       228.7500  12.0000  18.2500 Du        
  10378 ****       228.7500  12.0000  18.5000 Du        
  10379 ****       228.7500  12.2500  13.5000 Du        
  10380 ****       228.7500  12.2500  13.7500 Du        
  10381 ****       228.7500  12.2500  14.0000 Du        
  10382 ****       228.7500  12.2500  14.2500 Du        
  10383 ****       228.7500  12.2500  14.5000 Du        
  10384 ****       228.7500  12.2500  14.7500 Du        
  10385 ****       228.7500  12.2500  15.0000 Du        
  10386 ****       228.7500  12.2500  17.2500 Du        
  10387 ****       228.7500  12.2500  17.5000 Du        
  10388 ****       228.7500  12.2500  17.7500 Du        
  10389 ****       228.7500  12.2500  18.0000 Du        
  10390 ****       228.7500  12.2500  18.2500 Du        
  10391 ****       228.7500  12.2500  18.5000 Du        
  10392 ****       228.7500  12.2500  18.7500 Du        
  10393 ****       228.7500  12.5000  13.7500 Du        
  10394 ****       228.7500  12.5000  14.0000 Du        
  10395 ****       228.7500  12.5000  14.2500 Du        
  10396 ****       228.7500  12.5000  14.5000 Du        
  10397 ****       228.7500  12.5000  17.7500 Du        
  10398 ****       228.7500  12.5000  18.0000 Du        
  10399 ****       228.7500  12.5000  18.2500 Du        
  10400 ****       228.7500  12.5000  18.5000 Du        
  10401 ****       228.7500  12.5000  18.7500 Du        
  10402 ****       228.7500  12.7500  13.7500 Du        
  10403 ****       228.7500  12.7500  14.0000 Du        
  10404 ****       228.7500  12.7500  14.2500 Du        
  10405 ****       228.7500  12.7500  18.0000 Du        
  10406 ****       228.7500  12.7500  18.2500 Du        
  10407 ****       228.7500  12.7500  18.5000 Du        
  10408 ****       228.7500  13.0000  13.7500 Du        
  10409 ****       228.7500  13.0000  14.0000 Du        
  10410 ****       228.7500  13.0000  14.2500 Du        
  10411 ****       228.7500  13.2500  13.7500 Du        
  10412 ****       228.7500  13.2500  14.0000 Du        
  10413 ****       228.7500  13.2500  14.2500 Du        
  10414 ****       228.7500  13.5000  14.0000 Du        
  10415 ****       228.7500  13.7500  14.0000 Du        
  10416 ****       228.7500  14.0000  14.0000 Du        
  10417 ****       228.7500  14.2500  14.0000 Du        
  10418 ****       228.7500  14.2500  14.2500 Du        
  10419 ****       228.7500  14.5000  14.0000 Du        
  10420 ****       228.7500  14.7500  14.0000 Du        
  10421 ****       228.7500  14.7500  14.2500 Du        
  10422 ****       228.7500  15.0000  14.0000 Du        
  10423 ****       228.7500  15.0000  14.2500 Du        
  10424 ****       228.7500  15.2500  14.0000 Du        
  10425 ****       228.7500  15.2500  14.2500 Du        
  10426 ****       228.7500  15.2500  14.5000 Du        
  10427 ****       228.7500  15.2500  14.7500 Du        
  10428 ****       228.7500  15.5000  13.7500 Du        
  10429 ****       228.7500  15.5000  14.0000 Du        
  10430 ****       228.7500  15.5000  14.2500 Du        
  10431 ****       228.7500  15.5000  14.5000 Du        
  10432 ****       228.7500  15.5000  14.7500 Du        
  10433 ****       228.7500  15.5000  15.0000 Du        
  10434 ****       228.7500  15.7500  13.7500 Du        
  10435 ****       228.7500  15.7500  14.0000 Du        
  10436 ****       228.7500  15.7500  14.2500 Du        
  10437 ****       228.7500  15.7500  14.5000 Du        
  10438 ****       228.7500  15.7500  14.7500 Du        
  10439 ****       228.7500  15.7500  15.0000 Du        
  10440 ****       228.7500  16.0000  13.7500 Du        
  10441 ****       228.7500  16.0000  14.0000 Du        
  10442 ****       228.7500  16.0000  14.2500 Du        
  10443 ****       228.7500  16.0000  14.7500 Du        
  10444 ****       228.7500  16.0000  15.0000 Du        
  10445 ****       228.7500  16.0000  15.2500 Du        
  10446 ****       228.7500  16.2500  13.7500 Du        
  10447 ****       228.7500  16.2500  14.0000 Du        
  10448 ****       228.7500  16.2500  14.5000 Du        
  10449 ****       228.7500  16.2500  14.7500 Du        
  10450 ****       228.7500  16.2500  15.0000 Du        
  10451 ****       228.7500  16.2500  15.5000 Du        
  10452 ****       228.7500  16.5000  13.7500 Du        
  10453 ****       228.7500  16.5000  14.7500 Du        
  10454 ****       228.7500  16.5000  15.0000 Du        
  10455 ****       228.7500  16.5000  15.2500 Du        
  10456 ****       228.7500  16.7500  14.0000 Du        
  10457 ****       228.7500  16.7500  14.7500 Du        
  10458 ****       228.7500  16.7500  15.0000 Du        
  10459 ****       228.7500  16.7500  15.2500 Du        
  10460 ****       228.7500  17.0000  14.0000 Du        
  10461 ****       228.7500  17.0000  14.7500 Du        
  10462 ****       228.7500  17.0000  15.0000 Du        
  10463 ****       228.7500  17.0000  15.2500 Du        
  10464 ****       228.7500  18.7500  11.7500 Du        
  10465 ****       228.7500  18.7500  12.0000 Du        
  10466 ****       228.7500  19.0000  11.7500 Du        
  10467 ****       228.7500  19.0000  12.0000 Du        
  10468 ****       228.7500  19.0000  12.2500 Du        
  10469 ****       228.7500  19.2500  11.7500 Du        
  10470 ****       228.7500  19.2500  12.0000 Du        
  10471 ****       228.7500  19.2500  12.2500 Du        
  10472 ****       228.7500  19.5000  12.0000 Du        
  10473 ****       228.7500  19.5000  12.2500 Du        
  10474 ****       228.7500  19.7500  12.0000 Du        
  10475 ****       228.7500  19.7500  12.2500 Du        
  10476 ****       228.7500  20.0000  12.0000 Du        
  10477 ****       228.7500  20.2500  12.2500 Du        
  10478 ****       228.7500  20.7500  12.0000 Du        
  10479 ****       228.7500  20.7500  12.2500 Du        
  10480 ****       228.7500  20.7500  12.5000 Du        
  10481 ****       228.7500  20.7500  12.7500 Du        
  10482 ****       228.7500  21.0000  11.2500 Du        
  10483 ****       228.7500  21.0000  11.7500 Du        
  10484 ****       228.7500  21.0000  12.0000 Du        
  10485 ****       228.7500  21.0000  12.2500 Du        
  10486 ****       228.7500  21.0000  12.5000 Du        
  10487 ****       228.7500  21.0000  12.7500 Du        
  10488 ****       228.7500  21.2500  11.0000 Du        
  10489 ****       228.7500  21.2500  11.2500 Du        
  10490 ****       228.7500  21.2500  11.5000 Du        
  10491 ****       228.7500  21.2500  11.7500 Du        
  10492 ****       228.7500  21.2500  12.0000 Du        
  10493 ****       228.7500  21.2500  12.2500 Du        
  10494 ****       228.7500  21.2500  12.5000 Du        
  10495 ****       228.7500  21.2500  12.7500 Du        
  10496 ****       228.7500  21.2500  13.0000 Du        
  10497 ****       228.7500  21.5000  11.0000 Du        
  10498 ****       228.7500  21.5000  11.2500 Du        
  10499 ****       228.7500  21.5000  11.5000 Du        
  10500 ****       228.7500  21.5000  11.7500 Du        
  10501 ****       228.7500  21.5000  12.0000 Du        
  10502 ****       228.7500  21.5000  12.2500 Du        
  10503 ****       228.7500  21.5000  12.5000 Du        
  10504 ****       228.7500  21.5000  12.7500 Du        
  10505 ****       228.7500  21.5000  13.0000 Du        
  10506 ****       228.7500  21.7500  11.0000 Du        
  10507 ****       228.7500  21.7500  11.2500 Du        
  10508 ****       228.7500  21.7500  11.5000 Du        
  10509 ****       228.7500  21.7500  11.7500 Du        
  10510 ****       228.7500  21.7500  12.0000 Du        
  10511 ****       228.7500  21.7500  12.2500 Du        
  10512 ****       228.7500  21.7500  12.5000 Du        
  10513 ****       228.7500  21.7500  12.7500 Du        
  10514 ****       228.7500  21.7500  13.0000 Du        
  10515 ****       228.7500  22.0000  11.0000 Du        
  10516 ****       228.7500  22.0000  11.2500 Du        
  10517 ****       228.7500  22.0000  11.5000 Du        
  10518 ****       228.7500  22.0000  11.7500 Du        
  10519 ****       228.7500  22.0000  12.0000 Du        
  10520 ****       228.7500  22.0000  12.2500 Du        
  10521 ****       228.7500  22.0000  12.5000 Du        
  10522 ****       228.7500  22.0000  12.7500 Du        
  10523 ****       228.7500  22.0000  13.0000 Du        
  10524 ****       228.7500  22.2500  10.7500 Du        
  10525 ****       228.7500  22.2500  11.0000 Du        
  10526 ****       228.7500  22.2500  11.2500 Du        
  10527 ****       228.7500  22.2500  11.5000 Du        
  10528 ****       228.7500  22.2500  11.7500 Du        
  10529 ****       228.7500  22.2500  12.0000 Du        
  10530 ****       228.7500  22.2500  12.2500 Du        
  10531 ****       228.7500  22.2500  12.5000 Du        
  10532 ****       228.7500  22.2500  12.7500 Du        
  10533 ****       228.7500  22.2500  13.0000 Du        
  10534 ****       228.7500  22.5000  10.7500 Du        
  10535 ****       228.7500  22.5000  11.0000 Du        
  10536 ****       228.7500  22.5000  11.2500 Du        
  10537 ****       228.7500  22.5000  11.5000 Du        
  10538 ****       228.7500  22.5000  11.7500 Du        
  10539 ****       228.7500  22.5000  12.0000 Du        
  10540 ****       228.7500  22.5000  12.2500 Du        
  10541 ****       228.7500  22.5000  12.5000 Du        
  10542 ****       228.7500  22.5000  12.7500 Du        
  10543 ****       228.7500  22.5000  13.0000 Du        
  10544 ****       228.7500  22.5000  13.2500 Du        
  10545 ****       228.7500  22.7500  10.7500 Du        
  10546 ****       228.7500  22.7500  11.0000 Du        
  10547 ****       228.7500  22.7500  11.2500 Du        
  10548 ****       228.7500  22.7500  11.5000 Du        
  10549 ****       228.7500  22.7500  11.7500 Du        
  10550 ****       228.7500  22.7500  12.0000 Du        
  10551 ****       228.7500  22.7500  12.2500 Du        
  10552 ****       228.7500  22.7500  12.5000 Du        
  10553 ****       228.7500  22.7500  12.7500 Du        
  10554 ****       228.7500  22.7500  13.0000 Du        
  10555 ****       228.7500  22.7500  13.2500 Du        
  10556 ****       228.7500  23.0000  10.7500 Du        
  10557 ****       228.7500  23.0000  11.0000 Du        
  10558 ****       228.7500  23.0000  11.2500 Du        
  10559 ****       228.7500  23.0000  11.5000 Du        
  10560 ****       228.7500  23.0000  11.7500 Du        
  10561 ****       228.7500  23.0000  12.0000 Du        
  10562 ****       228.7500  23.0000  12.2500 Du        
  10563 ****       228.7500  23.0000  12.5000 Du        
  10564 ****       228.7500  23.0000  12.7500 Du        
  10565 ****       228.7500  23.0000  13.0000 Du        
  10566 ****       228.7500  23.0000  13.2500 Du        
  10567 ****       228.7500  23.2500  10.7500 Du        
  10568 ****       228.7500  23.2500  11.0000 Du        
  10569 ****       228.7500  23.2500  11.2500 Du        
  10570 ****       228.7500  23.2500  11.5000 Du        
  10571 ****       228.7500  23.2500  11.7500 Du        
  10572 ****       228.7500  23.2500  12.0000 Du        
  10573 ****       228.7500  23.2500  12.2500 Du        
  10574 ****       228.7500  23.2500  12.5000 Du        
  10575 ****       228.7500  23.2500  12.7500 Du        
  10576 ****       228.7500  23.2500  13.0000 Du        
  10577 ****       228.7500  23.2500  13.2500 Du        
  10578 ****       228.7500  23.2500  13.5000 Du        
  10579 ****       228.7500  23.5000  10.7500 Du        
  10580 ****       228.7500  23.5000  11.0000 Du        
  10581 ****       228.7500  23.5000  11.2500 Du        
  10582 ****       228.7500  23.5000  11.5000 Du        
  10583 ****       228.7500  23.5000  11.7500 Du        
  10584 ****       228.7500  23.5000  12.0000 Du        
  10585 ****       228.7500  23.5000  12.2500 Du        
  10586 ****       228.7500  23.5000  12.5000 Du        
  10587 ****       228.7500  23.5000  12.7500 Du        
  10588 ****       228.7500  23.5000  13.0000 Du        
  10589 ****       228.7500  23.5000  13.2500 Du        
  10590 ****       228.7500  23.5000  13.5000 Du        
  10591 ****       228.7500  23.7500  10.7500 Du        
  10592 ****       228.7500  23.7500  11.0000 Du        
  10593 ****       228.7500  23.7500  11.2500 Du        
  10594 ****       228.7500  23.7500  11.5000 Du        
  10595 ****       228.7500  23.7500  11.7500 Du        
  10596 ****       228.7500  23.7500  12.0000 Du        
  10597 ****       228.7500  23.7500  12.2500 Du        
  10598 ****       228.7500  23.7500  12.5000 Du        
  10599 ****       228.7500  23.7500  12.7500 Du        
  10600 ****       228.7500  23.7500  13.0000 Du        
  10601 ****       228.7500  23.7500  13.2500 Du        
  10602 ****       228.7500  23.7500  13.5000 Du        
  10603 ****       228.7500  23.7500  13.7500 Du        
  10604 ****       228.7500  24.0000  11.2500 Du        
  10605 ****       228.7500  24.0000  11.5000 Du        
  10606 ****       228.7500  24.0000  11.7500 Du        
  10607 ****       228.7500  24.0000  12.0000 Du        
  10608 ****       228.7500  24.0000  12.2500 Du        
  10609 ****       228.7500  24.0000  12.5000 Du        
  10610 ****       228.7500  24.0000  12.7500 Du        
  10611 ****       228.7500  24.0000  13.0000 Du        
  10612 ****       228.7500  24.0000  13.2500 Du        
  10613 ****       228.7500  24.0000  13.5000 Du        
  10614 ****       228.7500  24.0000  13.7500 Du        
  10615 ****       228.7500  24.0000  14.0000 Du        
  10616 ****       228.7500  24.2500  11.5000 Du        
  10617 ****       228.7500  24.2500  11.7500 Du        
  10618 ****       228.7500  24.2500  12.0000 Du        
  10619 ****       228.7500  24.2500  12.2500 Du        
  10620 ****       228.7500  24.2500  12.5000 Du        
  10621 ****       228.7500  24.2500  12.7500 Du        
  10622 ****       228.7500  24.2500  13.0000 Du        
  10623 ****       228.7500  24.2500  13.2500 Du        
  10624 ****       228.7500  24.2500  13.5000 Du        
  10625 ****       228.7500  24.2500  13.7500 Du        
  10626 ****       228.7500  24.2500  14.0000 Du        
  10627 ****       228.7500  24.2500  14.2500 Du        
  10628 ****       228.7500  24.5000  12.0000 Du        
  10629 ****       228.7500  24.5000  12.2500 Du        
  10630 ****       228.7500  24.5000  12.5000 Du        
  10631 ****       228.7500  24.5000  12.7500 Du        
  10632 ****       228.7500  24.5000  13.0000 Du        
  10633 ****       228.7500  24.5000  13.2500 Du        
  10634 ****       228.7500  24.5000  13.5000 Du        
  10635 ****       228.7500  24.5000  13.7500 Du        
  10636 ****       228.7500  24.5000  14.0000 Du        
  10637 ****       228.7500  24.5000  14.2500 Du        
  10638 ****       228.7500  24.5000  14.5000 Du        
  10639 ****       228.7500  24.7500  12.0000 Du        
  10640 ****       228.7500  24.7500  12.2500 Du        
  10641 ****       228.7500  24.7500  12.5000 Du        
  10642 ****       228.7500  24.7500  12.7500 Du        
  10643 ****       228.7500  24.7500  13.0000 Du        
  10644 ****       228.7500  24.7500  13.2500 Du        
  10645 ****       228.7500  24.7500  13.5000 Du        
  10646 ****       228.7500  24.7500  13.7500 Du        
  10647 ****       228.7500  24.7500  14.0000 Du        
  10648 ****       228.7500  24.7500  14.2500 Du        
  10649 ****       228.7500  24.7500  14.5000 Du        
  10650 ****       228.7500  24.7500  14.7500 Du        
  10651 ****       228.7500  25.0000  12.2500 Du        
  10652 ****       228.7500  25.0000  12.5000 Du        
  10653 ****       228.7500  25.0000  12.7500 Du        
  10654 ****       228.7500  25.0000  13.0000 Du        
  10655 ****       228.7500  25.0000  13.2500 Du        
  10656 ****       228.7500  25.0000  13.5000 Du        
  10657 ****       228.7500  25.0000  13.7500 Du        
  10658 ****       228.7500  25.0000  14.0000 Du        
  10659 ****       228.7500  25.0000  14.2500 Du        
  10660 ****       228.7500  25.0000  14.5000 Du        
  10661 ****       228.7500  25.0000  14.7500 Du        
  10662 ****       228.7500  25.2500  12.5000 Du        
  10663 ****       228.7500  25.2500  12.7500 Du        
  10664 ****       228.7500  25.2500  13.0000 Du        
  10665 ****       228.7500  25.2500  13.2500 Du        
  10666 ****       228.7500  25.2500  13.5000 Du        
  10667 ****       228.7500  25.2500  13.7500 Du        
  10668 ****       228.7500  25.2500  14.0000 Du        
  10669 ****       228.7500  25.2500  14.2500 Du        
  10670 ****       228.7500  25.2500  14.5000 Du        
  10671 ****       228.7500  25.2500  14.7500 Du        
  10672 ****       228.7500  25.5000  12.5000 Du        
  10673 ****       228.7500  25.5000  12.7500 Du        
  10674 ****       228.7500  25.5000  13.0000 Du        
  10675 ****       228.7500  25.5000  13.2500 Du        
  10676 ****       228.7500  25.5000  13.5000 Du        
  10677 ****       228.7500  25.5000  13.7500 Du        
  10678 ****       228.7500  25.5000  14.0000 Du        
  10679 ****       228.7500  25.5000  14.2500 Du        
  10680 ****       228.7500  25.5000  14.5000 Du        
  10681 ****       228.7500  25.5000  14.7500 Du        
  10682 ****       228.7500  25.7500  12.5000 Du        
  10683 ****       228.7500  25.7500  12.7500 Du        
  10684 ****       228.7500  25.7500  13.0000 Du        
  10685 ****       228.7500  25.7500  13.2500 Du        
  10686 ****       228.7500  25.7500  13.5000 Du        
  10687 ****       228.7500  25.7500  13.7500 Du        
  10688 ****       228.7500  25.7500  14.0000 Du        
  10689 ****       228.7500  25.7500  14.2500 Du        
  10690 ****       228.7500  25.7500  14.5000 Du        
  10691 ****       228.7500  25.7500  14.7500 Du        
  10692 ****       228.7500  26.0000  12.5000 Du        
  10693 ****       228.7500  26.0000  12.7500 Du        
  10694 ****       228.7500  26.0000  13.0000 Du        
  10695 ****       228.7500  26.0000  13.2500 Du        
  10696 ****       228.7500  26.0000  13.5000 Du        
  10697 ****       228.7500  26.0000  13.7500 Du        
  10698 ****       228.7500  26.0000  14.0000 Du        
  10699 ****       228.7500  26.0000  14.2500 Du        
  10700 ****       228.7500  26.0000  14.5000 Du        
  10701 ****       228.7500  26.0000  14.7500 Du        
  10702 ****       228.7500  26.0000  15.0000 Du        
  10703 ****       228.7500  26.2500  12.5000 Du        
  10704 ****       228.7500  26.2500  12.7500 Du        
  10705 ****       228.7500  26.2500  13.0000 Du        
  10706 ****       228.7500  26.2500  13.2500 Du        
  10707 ****       228.7500  26.2500  13.5000 Du        
  10708 ****       228.7500  26.2500  13.7500 Du        
  10709 ****       228.7500  26.2500  14.0000 Du        
  10710 ****       228.7500  26.2500  14.2500 Du        
  10711 ****       228.7500  26.2500  14.5000 Du        
  10712 ****       228.7500  26.2500  14.7500 Du        
  10713 ****       228.7500  26.2500  15.0000 Du        
  10714 ****       228.7500  26.5000  12.5000 Du        
  10715 ****       228.7500  26.5000  12.7500 Du        
  10716 ****       228.7500  26.5000  13.0000 Du        
  10717 ****       228.7500  26.5000  13.2500 Du        
  10718 ****       228.7500  26.5000  13.5000 Du        
  10719 ****       228.7500  26.5000  13.7500 Du        
  10720 ****       228.7500  26.5000  14.0000 Du        
  10721 ****       228.7500  26.5000  14.2500 Du        
  10722 ****       228.7500  26.5000  14.5000 Du        
  10723 ****       228.7500  26.5000  14.7500 Du        
  10724 ****       228.7500  26.5000  15.0000 Du        
  10725 ****       228.7500  26.7500  12.5000 Du        
  10726 ****       228.7500  26.7500  12.7500 Du        
  10727 ****       228.7500  26.7500  13.0000 Du        
  10728 ****       228.7500  26.7500  13.2500 Du        
  10729 ****       228.7500  26.7500  13.5000 Du        
  10730 ****       228.7500  26.7500  13.7500 Du        
  10731 ****       228.7500  26.7500  14.0000 Du        
  10732 ****       228.7500  26.7500  14.2500 Du        
  10733 ****       228.7500  26.7500  14.5000 Du        
  10734 ****       228.7500  26.7500  14.7500 Du        
  10735 ****       228.7500  26.7500  15.0000 Du        
  10736 ****       228.7500  27.0000  12.2500 Du        
  10737 ****       228.7500  27.0000  12.5000 Du        
  10738 ****       228.7500  27.0000  12.7500 Du        
  10739 ****       228.7500  27.0000  13.0000 Du        
  10740 ****       228.7500  27.0000  13.2500 Du        
  10741 ****       228.7500  27.0000  13.5000 Du        
  10742 ****       228.7500  27.0000  13.7500 Du        
  10743 ****       228.7500  27.0000  14.0000 Du        
  10744 ****       228.7500  27.0000  14.2500 Du        
  10745 ****       228.7500  27.0000  14.5000 Du        
  10746 ****       228.7500  27.0000  14.7500 Du        
  10747 ****       228.7500  27.0000  15.0000 Du        
  10748 ****       228.7500  27.2500  12.2500 Du        
  10749 ****       228.7500  27.2500  12.5000 Du        
  10750 ****       228.7500  27.2500  12.7500 Du        
  10751 ****       228.7500  27.2500  13.0000 Du        
  10752 ****       228.7500  27.2500  13.2500 Du        
  10753 ****       228.7500  27.2500  13.5000 Du        
  10754 ****       228.7500  27.2500  13.7500 Du        
  10755 ****       228.7500  27.2500  14.0000 Du        
  10756 ****       228.7500  27.2500  14.2500 Du        
  10757 ****       228.7500  27.2500  14.5000 Du        
  10758 ****       228.7500  27.2500  14.7500 Du        
  10759 ****       228.7500  27.2500  15.0000 Du        
  10760 ****       228.7500  27.5000  12.2500 Du        
  10761 ****       228.7500  27.5000  12.5000 Du        
  10762 ****       228.7500  27.5000  12.7500 Du        
  10763 ****       228.7500  27.5000  13.0000 Du        
  10764 ****       228.7500  27.5000  13.2500 Du        
  10765 ****       228.7500  27.5000  13.5000 Du        
  10766 ****       228.7500  27.5000  13.7500 Du        
  10767 ****       228.7500  27.5000  14.0000 Du        
  10768 ****       228.7500  27.5000  14.2500 Du        
  10769 ****       228.7500  27.5000  14.5000 Du        
  10770 ****       228.7500  27.5000  14.7500 Du        
  10771 ****       228.7500  27.5000  15.0000 Du        
  10772 ****       228.7500  27.7500  12.2500 Du        
  10773 ****       228.7500  27.7500  12.5000 Du        
  10774 ****       228.7500  27.7500  12.7500 Du        
  10775 ****       228.7500  27.7500  13.0000 Du        
  10776 ****       228.7500  27.7500  13.2500 Du        
  10777 ****       228.7500  27.7500  13.5000 Du        
  10778 ****       228.7500  27.7500  13.7500 Du        
  10779 ****       228.7500  27.7500  14.0000 Du        
  10780 ****       228.7500  27.7500  14.2500 Du        
  10781 ****       228.7500  27.7500  14.5000 Du        
  10782 ****       228.7500  27.7500  14.7500 Du        
  10783 ****       228.7500  28.0000  12.2500 Du        
  10784 ****       228.7500  28.0000  12.5000 Du        
  10785 ****       228.7500  28.0000  12.7500 Du        
  10786 ****       228.7500  28.0000  13.0000 Du        
  10787 ****       228.7500  28.0000  13.2500 Du        
  10788 ****       228.7500  28.0000  13.5000 Du        
  10789 ****       228.7500  28.0000  13.7500 Du        
  10790 ****       228.7500  28.0000  14.0000 Du        
  10791 ****       228.7500  28.0000  14.2500 Du        
  10792 ****       228.7500  28.0000  14.5000 Du        
  10793 ****       228.7500  28.2500  12.5000 Du        
  10794 ****       228.7500  28.2500  12.7500 Du        
  10795 ****       228.7500  28.2500  13.0000 Du        
  10796 ****       228.7500  28.2500  13.2500 Du        
  10797 ****       228.7500  28.2500  13.5000 Du        
  10798 ****       228.7500  28.2500  13.7500 Du        
  10799 ****       228.7500  28.2500  14.0000 Du        
  10800 ****       228.7500  28.2500  14.2500 Du        
  10801 ****       228.7500  28.5000  12.7500 Du        
  10802 ****       228.7500  28.5000  13.0000 Du        
  10803 ****       228.7500  28.5000  13.2500 Du        
  10804 ****       228.7500  28.5000  13.5000 Du        
  10805 ****       228.7500  28.5000  13.7500 Du        
  10806 ****       228.7500  28.5000  14.0000 Du        
  10807 ****       228.7500  28.7500  13.0000 Du        
  10808 ****       228.7500  28.7500  13.2500 Du        
  10809 ****       228.7500  28.7500  13.5000 Du        
  10810 ****       228.7500  28.7500  13.7500 Du        
  10811 ****       229.0000  10.0000  16.0000 Du        
  10812 ****       229.0000  10.2500  15.0000 Du        
  10813 ****       229.0000  10.2500  15.2500 Du        
  10814 ****       229.0000  10.2500  15.5000 Du        
  10815 ****       229.0000  10.2500  15.7500 Du        
  10816 ****       229.0000  10.2500  16.0000 Du        
  10817 ****       229.0000  10.2500  16.2500 Du        
  10818 ****       229.0000  10.5000  14.7500 Du        
  10819 ****       229.0000  10.5000  15.0000 Du        
  10820 ****       229.0000  10.5000  15.2500 Du        
  10821 ****       229.0000  10.5000  15.5000 Du        
  10822 ****       229.0000  10.5000  15.7500 Du        
  10823 ****       229.0000  10.5000  16.0000 Du        
  10824 ****       229.0000  10.5000  16.2500 Du        
  10825 ****       229.0000  10.7500  14.5000 Du        
  10826 ****       229.0000  10.7500  14.7500 Du        
  10827 ****       229.0000  10.7500  15.0000 Du        
  10828 ****       229.0000  10.7500  15.2500 Du        
  10829 ****       229.0000  10.7500  15.5000 Du        
  10830 ****       229.0000  10.7500  15.7500 Du        
  10831 ****       229.0000  10.7500  16.0000 Du        
  10832 ****       229.0000  10.7500  16.2500 Du        
  10833 ****       229.0000  10.7500  16.5000 Du        
  10834 ****       229.0000  11.0000  14.0000 Du        
  10835 ****       229.0000  11.0000  14.2500 Du        
  10836 ****       229.0000  11.0000  14.5000 Du        
  10837 ****       229.0000  11.0000  14.7500 Du        
  10838 ****       229.0000  11.0000  15.0000 Du        
  10839 ****       229.0000  11.0000  15.2500 Du        
  10840 ****       229.0000  11.0000  15.5000 Du        
  10841 ****       229.0000  11.0000  15.7500 Du        
  10842 ****       229.0000  11.0000  16.0000 Du        
  10843 ****       229.0000  11.0000  16.2500 Du        
  10844 ****       229.0000  11.0000  16.5000 Du        
  10845 ****       229.0000  11.0000  16.7500 Du        
  10846 ****       229.0000  11.2500  13.7500 Du        
  10847 ****       229.0000  11.2500  14.0000 Du        
  10848 ****       229.0000  11.2500  14.2500 Du        
  10849 ****       229.0000  11.2500  14.5000 Du        
  10850 ****       229.0000  11.2500  14.7500 Du        
  10851 ****       229.0000  11.2500  15.0000 Du        
  10852 ****       229.0000  11.2500  15.2500 Du        
  10853 ****       229.0000  11.2500  15.5000 Du        
  10854 ****       229.0000  11.2500  15.7500 Du        
  10855 ****       229.0000  11.2500  16.0000 Du        
  10856 ****       229.0000  11.2500  16.2500 Du        
  10857 ****       229.0000  11.2500  16.5000 Du        
  10858 ****       229.0000  11.2500  16.7500 Du        
  10859 ****       229.0000  11.5000  13.7500 Du        
  10860 ****       229.0000  11.5000  14.0000 Du        
  10861 ****       229.0000  11.5000  14.2500 Du        
  10862 ****       229.0000  11.5000  14.5000 Du        
  10863 ****       229.0000  11.5000  14.7500 Du        
  10864 ****       229.0000  11.5000  15.0000 Du        
  10865 ****       229.0000  11.5000  15.2500 Du        
  10866 ****       229.0000  11.5000  15.5000 Du        
  10867 ****       229.0000  11.5000  15.7500 Du        
  10868 ****       229.0000  11.5000  16.0000 Du        
  10869 ****       229.0000  11.5000  16.2500 Du        
  10870 ****       229.0000  11.5000  16.5000 Du        
  10871 ****       229.0000  11.5000  16.7500 Du        
  10872 ****       229.0000  11.5000  17.0000 Du        
  10873 ****       229.0000  11.7500  13.5000 Du        
  10874 ****       229.0000  11.7500  13.7500 Du        
  10875 ****       229.0000  11.7500  14.0000 Du        
  10876 ****       229.0000  11.7500  14.2500 Du        
  10877 ****       229.0000  11.7500  14.5000 Du        
  10878 ****       229.0000  11.7500  14.7500 Du        
  10879 ****       229.0000  11.7500  15.0000 Du        
  10880 ****       229.0000  11.7500  15.2500 Du        
  10881 ****       229.0000  11.7500  15.5000 Du        
  10882 ****       229.0000  11.7500  15.7500 Du        
  10883 ****       229.0000  11.7500  16.0000 Du        
  10884 ****       229.0000  11.7500  16.5000 Du        
  10885 ****       229.0000  11.7500  16.7500 Du        
  10886 ****       229.0000  11.7500  17.0000 Du        
  10887 ****       229.0000  11.7500  17.2500 Du        
  10888 ****       229.0000  11.7500  17.5000 Du        
  10889 ****       229.0000  11.7500  17.7500 Du        
  10890 ****       229.0000  11.7500  18.0000 Du        
  10891 ****       229.0000  12.0000  13.5000 Du        
  10892 ****       229.0000  12.0000  13.7500 Du        
  10893 ****       229.0000  12.0000  14.0000 Du        
  10894 ****       229.0000  12.0000  14.2500 Du        
  10895 ****       229.0000  12.0000  14.5000 Du        
  10896 ****       229.0000  12.0000  14.7500 Du        
  10897 ****       229.0000  12.0000  17.5000 Du        
  10898 ****       229.0000  12.0000  17.7500 Du        
  10899 ****       229.0000  12.0000  18.0000 Du        
  10900 ****       229.0000  12.0000  18.2500 Du        
  10901 ****       229.0000  12.0000  18.5000 Du        
  10902 ****       229.0000  12.0000  18.7500 Du        
  10903 ****       229.0000  12.2500  13.7500 Du        
  10904 ****       229.0000  12.2500  14.0000 Du        
  10905 ****       229.0000  12.2500  14.2500 Du        
  10906 ****       229.0000  12.2500  17.7500 Du        
  10907 ****       229.0000  12.2500  18.0000 Du        
  10908 ****       229.0000  12.2500  18.2500 Du        
  10909 ****       229.0000  12.2500  18.5000 Du        
  10910 ****       229.0000  12.2500  18.7500 Du        
  10911 ****       229.0000  12.5000  13.7500 Du        
  10912 ****       229.0000  12.5000  14.0000 Du        
  10913 ****       229.0000  12.5000  18.0000 Du        
  10914 ****       229.0000  12.5000  18.2500 Du        
  10915 ****       229.0000  12.5000  18.5000 Du        
  10916 ****       229.0000  12.7500  13.7500 Du        
  10917 ****       229.0000  12.7500  14.0000 Du        
  10918 ****       229.0000  13.0000  13.7500 Du        
  10919 ****       229.0000  13.0000  14.0000 Du        
  10920 ****       229.0000  13.2500  14.0000 Du        
  10921 ****       229.0000  13.5000  14.0000 Du        
  10922 ****       229.0000  13.7500  13.7500 Du        
  10923 ****       229.0000  13.7500  14.0000 Du        
  10924 ****       229.0000  14.0000  14.0000 Du        
  10925 ****       229.0000  14.2500  14.0000 Du        
  10926 ****       229.0000  14.2500  14.2500 Du        
  10927 ****       229.0000  14.5000  14.0000 Du        
  10928 ****       229.0000  14.5000  14.2500 Du        
  10929 ****       229.0000  14.7500  14.0000 Du        
  10930 ****       229.0000  14.7500  14.2500 Du        
  10931 ****       229.0000  15.0000  13.7500 Du        
  10932 ****       229.0000  15.0000  14.0000 Du        
  10933 ****       229.0000  15.0000  14.2500 Du        
  10934 ****       229.0000  15.2500  13.7500 Du        
  10935 ****       229.0000  15.2500  14.0000 Du        
  10936 ****       229.0000  15.2500  14.2500 Du        
  10937 ****       229.0000  15.2500  14.5000 Du        
  10938 ****       229.0000  15.2500  14.7500 Du        
  10939 ****       229.0000  15.5000  13.7500 Du        
  10940 ****       229.0000  15.5000  14.0000 Du        
  10941 ****       229.0000  15.5000  14.2500 Du        
  10942 ****       229.0000  15.5000  14.5000 Du        
  10943 ****       229.0000  15.5000  14.7500 Du        
  10944 ****       229.0000  15.7500  13.7500 Du        
  10945 ****       229.0000  15.7500  14.0000 Du        
  10946 ****       229.0000  15.7500  14.2500 Du        
  10947 ****       229.0000  15.7500  14.5000 Du        
  10948 ****       229.0000  15.7500  14.7500 Du        
  10949 ****       229.0000  15.7500  15.0000 Du        
  10950 ****       229.0000  16.0000  13.7500 Du        
  10951 ****       229.0000  16.0000  14.0000 Du        
  10952 ****       229.0000  16.0000  14.2500 Du        
  10953 ****       229.0000  16.0000  14.5000 Du        
  10954 ****       229.0000  16.0000  14.7500 Du        
  10955 ****       229.0000  16.0000  15.0000 Du        
  10956 ****       229.0000  16.0000  15.2500 Du        
  10957 ****       229.0000  16.2500  13.7500 Du        
  10958 ****       229.0000  16.2500  14.0000 Du        
  10959 ****       229.0000  16.2500  14.2500 Du        
  10960 ****       229.0000  16.2500  14.5000 Du        
  10961 ****       229.0000  16.2500  14.7500 Du        
  10962 ****       229.0000  16.2500  15.0000 Du        
  10963 ****       229.0000  16.2500  15.2500 Du        
  10964 ****       229.0000  16.5000  13.7500 Du        
  10965 ****       229.0000  16.5000  14.0000 Du        
  10966 ****       229.0000  16.5000  14.2500 Du        
  10967 ****       229.0000  16.5000  14.5000 Du        
  10968 ****       229.0000  16.5000  14.7500 Du        
  10969 ****       229.0000  16.5000  15.0000 Du        
  10970 ****       229.0000  16.5000  15.2500 Du        
  10971 ****       229.0000  16.7500  13.2500 Du        
  10972 ****       229.0000  16.7500  13.5000 Du        
  10973 ****       229.0000  16.7500  13.7500 Du        
  10974 ****       229.0000  16.7500  14.0000 Du        
  10975 ****       229.0000  16.7500  14.2500 Du        
  10976 ****       229.0000  16.7500  14.5000 Du        
  10977 ****       229.0000  16.7500  14.7500 Du        
  10978 ****       229.0000  16.7500  15.0000 Du        
  10979 ****       229.0000  16.7500  15.2500 Du        
  10980 ****       229.0000  17.0000  13.2500 Du        
  10981 ****       229.0000  17.0000  13.5000 Du        
  10982 ****       229.0000  17.0000  13.7500 Du        
  10983 ****       229.0000  17.0000  14.0000 Du        
  10984 ****       229.0000  17.0000  14.5000 Du        
  10985 ****       229.0000  17.0000  14.7500 Du        
  10986 ****       229.0000  17.0000  15.0000 Du        
  10987 ****       229.0000  17.0000  15.2500 Du        
  10988 ****       229.0000  17.2500  13.2500 Du        
  10989 ****       229.0000  17.2500  13.5000 Du        
  10990 ****       229.0000  17.2500  13.7500 Du        
  10991 ****       229.0000  17.2500  14.5000 Du        
  10992 ****       229.0000  17.2500  14.7500 Du        
  10993 ****       229.0000  17.2500  15.0000 Du        
  10994 ****       229.0000  17.7500  13.0000 Du        
  10995 ****       229.0000  17.7500  13.2500 Du        
  10996 ****       229.0000  18.2500  12.2500 Du        
  10997 ****       229.0000  18.5000  11.7500 Du        
  10998 ****       229.0000  18.5000  12.0000 Du        
  10999 ****       229.0000  18.7500  11.2500 Du        
  11000 ****       229.0000  18.7500  11.5000 Du        
  11001 ****       229.0000  18.7500  11.7500 Du        
  11002 ****       229.0000  18.7500  12.0000 Du        
  11003 ****       229.0000  18.7500  12.2500 Du        
  11004 ****       229.0000  18.7500  12.5000 Du        
  11005 ****       229.0000  19.0000  11.2500 Du        
  11006 ****       229.0000  19.0000  11.5000 Du        
  11007 ****       229.0000  19.0000  11.7500 Du        
  11008 ****       229.0000  19.0000  12.0000 Du        
  11009 ****       229.0000  19.0000  12.2500 Du        
  11010 ****       229.0000  19.0000  12.5000 Du        
  11011 ****       229.0000  19.0000  12.7500 Du        
  11012 ****       229.0000  19.2500  11.2500 Du        
  11013 ****       229.0000  19.2500  11.5000 Du        
  11014 ****       229.0000  19.2500  11.7500 Du        
  11015 ****       229.0000  19.2500  12.0000 Du        
  11016 ****       229.0000  19.2500  12.2500 Du        
  11017 ****       229.0000  19.2500  12.5000 Du        
  11018 ****       229.0000  19.2500  12.7500 Du        
  11019 ****       229.0000  19.5000  11.2500 Du        
  11020 ****       229.0000  19.5000  11.5000 Du        
  11021 ****       229.0000  19.5000  11.7500 Du        
  11022 ****       229.0000  19.5000  12.0000 Du        
  11023 ****       229.0000  19.5000  12.2500 Du        
  11024 ****       229.0000  19.7500  11.2500 Du        
  11025 ****       229.0000  19.7500  11.5000 Du        
  11026 ****       229.0000  19.7500  11.7500 Du        
  11027 ****       229.0000  19.7500  12.0000 Du        
  11028 ****       229.0000  19.7500  12.2500 Du        
  11029 ****       229.0000  19.7500  12.5000 Du        
  11030 ****       229.0000  20.0000  11.2500 Du        
  11031 ****       229.0000  20.0000  11.5000 Du        
  11032 ****       229.0000  20.0000  11.7500 Du        
  11033 ****       229.0000  20.0000  12.0000 Du        
  11034 ****       229.0000  20.0000  12.2500 Du        
  11035 ****       229.0000  20.0000  12.5000 Du        
  11036 ****       229.0000  20.0000  12.7500 Du        
  11037 ****       229.0000  20.2500  11.2500 Du        
  11038 ****       229.0000  20.2500  11.5000 Du        
  11039 ****       229.0000  20.2500  11.7500 Du        
  11040 ****       229.0000  20.2500  12.0000 Du        
  11041 ****       229.0000  20.2500  12.2500 Du        
  11042 ****       229.0000  20.2500  12.5000 Du        
  11043 ****       229.0000  20.5000  11.0000 Du        
  11044 ****       229.0000  20.5000  11.2500 Du        
  11045 ****       229.0000  20.5000  11.5000 Du        
  11046 ****       229.0000  20.5000  11.7500 Du        
  11047 ****       229.0000  20.5000  12.0000 Du        
  11048 ****       229.0000  20.5000  12.2500 Du        
  11049 ****       229.0000  20.5000  12.5000 Du        
  11050 ****       229.0000  20.5000  12.7500 Du        
  11051 ****       229.0000  20.7500  11.0000 Du        
  11052 ****       229.0000  20.7500  11.2500 Du        
  11053 ****       229.0000  20.7500  11.5000 Du        
  11054 ****       229.0000  20.7500  11.7500 Du        
  11055 ****       229.0000  20.7500  12.0000 Du        
  11056 ****       229.0000  20.7500  12.2500 Du        
  11057 ****       229.0000  20.7500  12.5000 Du        
  11058 ****       229.0000  20.7500  12.7500 Du        
  11059 ****       229.0000  21.0000  10.7500 Du        
  11060 ****       229.0000  21.0000  11.0000 Du        
  11061 ****       229.0000  21.0000  11.2500 Du        
  11062 ****       229.0000  21.0000  11.5000 Du        
  11063 ****       229.0000  21.0000  11.7500 Du        
  11064 ****       229.0000  21.0000  12.0000 Du        
  11065 ****       229.0000  21.0000  12.2500 Du        
  11066 ****       229.0000  21.0000  12.5000 Du        
  11067 ****       229.0000  21.0000  12.7500 Du        
  11068 ****       229.0000  21.0000  13.0000 Du        
  11069 ****       229.0000  21.2500  10.7500 Du        
  11070 ****       229.0000  21.2500  11.0000 Du        
  11071 ****       229.0000  21.2500  11.2500 Du        
  11072 ****       229.0000  21.2500  11.5000 Du        
  11073 ****       229.0000  21.2500  11.7500 Du        
  11074 ****       229.0000  21.2500  12.0000 Du        
  11075 ****       229.0000  21.2500  12.2500 Du        
  11076 ****       229.0000  21.2500  12.5000 Du        
  11077 ****       229.0000  21.2500  12.7500 Du        
  11078 ****       229.0000  21.2500  13.0000 Du        
  11079 ****       229.0000  21.5000  11.0000 Du        
  11080 ****       229.0000  21.5000  11.2500 Du        
  11081 ****       229.0000  21.5000  11.5000 Du        
  11082 ****       229.0000  21.5000  11.7500 Du        
  11083 ****       229.0000  21.5000  12.0000 Du        
  11084 ****       229.0000  21.5000  12.2500 Du        
  11085 ****       229.0000  21.5000  12.5000 Du        
  11086 ****       229.0000  21.5000  12.7500 Du        
  11087 ****       229.0000  21.5000  13.0000 Du        
  11088 ****       229.0000  21.7500  11.0000 Du        
  11089 ****       229.0000  21.7500  11.2500 Du        
  11090 ****       229.0000  21.7500  11.5000 Du        
  11091 ****       229.0000  21.7500  11.7500 Du        
  11092 ****       229.0000  21.7500  12.0000 Du        
  11093 ****       229.0000  21.7500  12.2500 Du        
  11094 ****       229.0000  21.7500  12.5000 Du        
  11095 ****       229.0000  21.7500  12.7500 Du        
  11096 ****       229.0000  21.7500  13.0000 Du        
  11097 ****       229.0000  22.0000  11.0000 Du        
  11098 ****       229.0000  22.0000  11.2500 Du        
  11099 ****       229.0000  22.0000  11.5000 Du        
  11100 ****       229.0000  22.0000  11.7500 Du        
  11101 ****       229.0000  22.0000  12.0000 Du        
  11102 ****       229.0000  22.0000  12.2500 Du        
  11103 ****       229.0000  22.0000  12.5000 Du        
  11104 ****       229.0000  22.0000  12.7500 Du        
  11105 ****       229.0000  22.0000  13.0000 Du        
  11106 ****       229.0000  22.2500  11.0000 Du        
  11107 ****       229.0000  22.2500  11.2500 Du        
  11108 ****       229.0000  22.2500  11.5000 Du        
  11109 ****       229.0000  22.2500  11.7500 Du        
  11110 ****       229.0000  22.2500  12.0000 Du        
  11111 ****       229.0000  22.2500  12.2500 Du        
  11112 ****       229.0000  22.2500  12.5000 Du        
  11113 ****       229.0000  22.2500  12.7500 Du        
  11114 ****       229.0000  22.2500  13.0000 Du        
  11115 ****       229.0000  22.5000  11.0000 Du        
  11116 ****       229.0000  22.5000  11.2500 Du        
  11117 ****       229.0000  22.5000  11.5000 Du        
  11118 ****       229.0000  22.5000  11.7500 Du        
  11119 ****       229.0000  22.5000  12.0000 Du        
  11120 ****       229.0000  22.5000  12.2500 Du        
  11121 ****       229.0000  22.5000  12.5000 Du        
  11122 ****       229.0000  22.5000  12.7500 Du        
  11123 ****       229.0000  22.5000  13.0000 Du        
  11124 ****       229.0000  22.7500  11.0000 Du        
  11125 ****       229.0000  22.7500  11.2500 Du        
  11126 ****       229.0000  22.7500  11.5000 Du        
  11127 ****       229.0000  22.7500  11.7500 Du        
  11128 ****       229.0000  22.7500  12.0000 Du        
  11129 ****       229.0000  22.7500  12.2500 Du        
  11130 ****       229.0000  22.7500  12.5000 Du        
  11131 ****       229.0000  22.7500  12.7500 Du        
  11132 ****       229.0000  22.7500  13.0000 Du        
  11133 ****       229.0000  23.0000  10.7500 Du        
  11134 ****       229.0000  23.0000  11.0000 Du        
  11135 ****       229.0000  23.0000  11.2500 Du        
  11136 ****       229.0000  23.0000  11.5000 Du        
  11137 ****       229.0000  23.0000  11.7500 Du        
  11138 ****       229.0000  23.0000  12.0000 Du        
  11139 ****       229.0000  23.0000  12.2500 Du        
  11140 ****       229.0000  23.0000  12.5000 Du        
  11141 ****       229.0000  23.0000  12.7500 Du        
  11142 ****       229.0000  23.0000  13.0000 Du        
  11143 ****       229.0000  23.2500  10.7500 Du        
  11144 ****       229.0000  23.2500  11.0000 Du        
  11145 ****       229.0000  23.2500  11.2500 Du        
  11146 ****       229.0000  23.2500  11.5000 Du        
  11147 ****       229.0000  23.2500  11.7500 Du        
  11148 ****       229.0000  23.2500  12.0000 Du        
  11149 ****       229.0000  23.2500  12.2500 Du        
  11150 ****       229.0000  23.2500  12.5000 Du        
  11151 ****       229.0000  23.2500  12.7500 Du        
  11152 ****       229.0000  23.2500  13.0000 Du        
  11153 ****       229.0000  23.5000  10.7500 Du        
  11154 ****       229.0000  23.5000  11.0000 Du        
  11155 ****       229.0000  23.5000  11.2500 Du        
  11156 ****       229.0000  23.5000  11.5000 Du        
  11157 ****       229.0000  23.5000  11.7500 Du        
  11158 ****       229.0000  23.5000  12.0000 Du        
  11159 ****       229.0000  23.5000  12.2500 Du        
  11160 ****       229.0000  23.5000  12.5000 Du        
  11161 ****       229.0000  23.5000  12.7500 Du        
  11162 ****       229.0000  23.5000  13.0000 Du        
  11163 ****       229.0000  23.5000  13.2500 Du        
  11164 ****       229.0000  23.7500  11.0000 Du        
  11165 ****       229.0000  23.7500  11.2500 Du        
  11166 ****       229.0000  23.7500  11.5000 Du        
  11167 ****       229.0000  23.7500  11.7500 Du        
  11168 ****       229.0000  23.7500  12.0000 Du        
  11169 ****       229.0000  23.7500  12.2500 Du        
  11170 ****       229.0000  23.7500  12.5000 Du        
  11171 ****       229.0000  23.7500  12.7500 Du        
  11172 ****       229.0000  23.7500  13.0000 Du        
  11173 ****       229.0000  23.7500  13.2500 Du        
  11174 ****       229.0000  24.0000  11.5000 Du        
  11175 ****       229.0000  24.0000  11.7500 Du        
  11176 ****       229.0000  24.0000  12.0000 Du        
  11177 ****       229.0000  24.0000  12.2500 Du        
  11178 ****       229.0000  24.0000  12.5000 Du        
  11179 ****       229.0000  24.0000  12.7500 Du        
  11180 ****       229.0000  24.0000  13.0000 Du        
  11181 ****       229.0000  24.0000  13.2500 Du        
  11182 ****       229.0000  24.0000  13.5000 Du        
  11183 ****       229.0000  24.0000  13.7500 Du        
  11184 ****       229.0000  24.2500  11.7500 Du        
  11185 ****       229.0000  24.2500  12.0000 Du        
  11186 ****       229.0000  24.2500  12.2500 Du        
  11187 ****       229.0000  24.2500  12.5000 Du        
  11188 ****       229.0000  24.2500  12.7500 Du        
  11189 ****       229.0000  24.2500  13.0000 Du        
  11190 ****       229.0000  24.2500  13.2500 Du        
  11191 ****       229.0000  24.2500  13.5000 Du        
  11192 ****       229.0000  24.2500  13.7500 Du        
  11193 ****       229.0000  24.2500  14.0000 Du        
  11194 ****       229.0000  24.5000  12.0000 Du        
  11195 ****       229.0000  24.5000  12.2500 Du        
  11196 ****       229.0000  24.5000  12.5000 Du        
  11197 ****       229.0000  24.5000  12.7500 Du        
  11198 ****       229.0000  24.5000  13.0000 Du        
  11199 ****       229.0000  24.5000  13.2500 Du        
  11200 ****       229.0000  24.5000  13.5000 Du        
  11201 ****       229.0000  24.5000  13.7500 Du        
  11202 ****       229.0000  24.5000  14.0000 Du        
  11203 ****       229.0000  24.5000  14.2500 Du        
  11204 ****       229.0000  24.7500  12.2500 Du        
  11205 ****       229.0000  24.7500  12.5000 Du        
  11206 ****       229.0000  24.7500  12.7500 Du        
  11207 ****       229.0000  24.7500  13.0000 Du        
  11208 ****       229.0000  24.7500  13.2500 Du        
  11209 ****       229.0000  24.7500  13.5000 Du        
  11210 ****       229.0000  24.7500  13.7500 Du        
  11211 ****       229.0000  24.7500  14.0000 Du        
  11212 ****       229.0000  24.7500  14.2500 Du        
  11213 ****       229.0000  24.7500  14.5000 Du        
  11214 ****       229.0000  25.0000  12.2500 Du        
  11215 ****       229.0000  25.0000  12.5000 Du        
  11216 ****       229.0000  25.0000  12.7500 Du        
  11217 ****       229.0000  25.0000  13.0000 Du        
  11218 ****       229.0000  25.0000  13.2500 Du        
  11219 ****       229.0000  25.0000  13.5000 Du        
  11220 ****       229.0000  25.0000  13.7500 Du        
  11221 ****       229.0000  25.0000  14.0000 Du        
  11222 ****       229.0000  25.0000  14.2500 Du        
  11223 ****       229.0000  25.0000  14.5000 Du        
  11224 ****       229.0000  25.0000  14.7500 Du        
  11225 ****       229.0000  25.2500  12.5000 Du        
  11226 ****       229.0000  25.2500  12.7500 Du        
  11227 ****       229.0000  25.2500  13.0000 Du        
  11228 ****       229.0000  25.2500  13.2500 Du        
  11229 ****       229.0000  25.2500  13.5000 Du        
  11230 ****       229.0000  25.2500  13.7500 Du        
  11231 ****       229.0000  25.2500  14.0000 Du        
  11232 ****       229.0000  25.2500  14.2500 Du        
  11233 ****       229.0000  25.2500  14.5000 Du        
  11234 ****       229.0000  25.2500  14.7500 Du        
  11235 ****       229.0000  25.5000  12.5000 Du        
  11236 ****       229.0000  25.5000  12.7500 Du        
  11237 ****       229.0000  25.5000  13.0000 Du        
  11238 ****       229.0000  25.5000  13.2500 Du        
  11239 ****       229.0000  25.5000  13.5000 Du        
  11240 ****       229.0000  25.5000  13.7500 Du        
  11241 ****       229.0000  25.5000  14.0000 Du        
  11242 ****       229.0000  25.5000  14.2500 Du        
  11243 ****       229.0000  25.5000  14.5000 Du        
  11244 ****       229.0000  25.5000  14.7500 Du        
  11245 ****       229.0000  25.7500  12.5000 Du        
  11246 ****       229.0000  25.7500  12.7500 Du        
  11247 ****       229.0000  25.7500  13.0000 Du        
  11248 ****       229.0000  25.7500  13.2500 Du        
  11249 ****       229.0000  25.7500  13.5000 Du        
  11250 ****       229.0000  25.7500  13.7500 Du        
  11251 ****       229.0000  25.7500  14.0000 Du        
  11252 ****       229.0000  25.7500  14.2500 Du        
  11253 ****       229.0000  25.7500  14.5000 Du        
  11254 ****       229.0000  25.7500  14.7500 Du        
  11255 ****       229.0000  26.0000  12.5000 Du        
  11256 ****       229.0000  26.0000  12.7500 Du        
  11257 ****       229.0000  26.0000  13.0000 Du        
  11258 ****       229.0000  26.0000  13.2500 Du        
  11259 ****       229.0000  26.0000  13.5000 Du        
  11260 ****       229.0000  26.0000  13.7500 Du        
  11261 ****       229.0000  26.0000  14.0000 Du        
  11262 ****       229.0000  26.0000  14.2500 Du        
  11263 ****       229.0000  26.0000  14.5000 Du        
  11264 ****       229.0000  26.0000  14.7500 Du        
  11265 ****       229.0000  26.2500  12.5000 Du        
  11266 ****       229.0000  26.2500  12.7500 Du        
  11267 ****       229.0000  26.2500  13.0000 Du        
  11268 ****       229.0000  26.2500  13.2500 Du        
  11269 ****       229.0000  26.2500  13.5000 Du        
  11270 ****       229.0000  26.2500  13.7500 Du        
  11271 ****       229.0000  26.2500  14.0000 Du        
  11272 ****       229.0000  26.2500  14.2500 Du        
  11273 ****       229.0000  26.2500  14.5000 Du        
  11274 ****       229.0000  26.2500  14.7500 Du        
  11275 ****       229.0000  26.5000  12.5000 Du        
  11276 ****       229.0000  26.5000  12.7500 Du        
  11277 ****       229.0000  26.5000  13.0000 Du        
  11278 ****       229.0000  26.5000  13.2500 Du        
  11279 ****       229.0000  26.5000  13.5000 Du        
  11280 ****       229.0000  26.5000  13.7500 Du        
  11281 ****       229.0000  26.5000  14.0000 Du        
  11282 ****       229.0000  26.5000  14.2500 Du        
  11283 ****       229.0000  26.5000  14.5000 Du        
  11284 ****       229.0000  26.5000  14.7500 Du        
  11285 ****       229.0000  26.7500  12.5000 Du        
  11286 ****       229.0000  26.7500  12.7500 Du        
  11287 ****       229.0000  26.7500  13.0000 Du        
  11288 ****       229.0000  26.7500  13.2500 Du        
  11289 ****       229.0000  26.7500  13.5000 Du        
  11290 ****       229.0000  26.7500  13.7500 Du        
  11291 ****       229.0000  26.7500  14.0000 Du        
  11292 ****       229.0000  26.7500  14.2500 Du        
  11293 ****       229.0000  26.7500  14.5000 Du        
  11294 ****       229.0000  26.7500  14.7500 Du        
  11295 ****       229.0000  26.7500  15.0000 Du        
  11296 ****       229.0000  27.0000  12.2500 Du        
  11297 ****       229.0000  27.0000  12.5000 Du        
  11298 ****       229.0000  27.0000  12.7500 Du        
  11299 ****       229.0000  27.0000  13.0000 Du        
  11300 ****       229.0000  27.0000  13.2500 Du        
  11301 ****       229.0000  27.0000  13.5000 Du        
  11302 ****       229.0000  27.0000  13.7500 Du        
  11303 ****       229.0000  27.0000  14.0000 Du        
  11304 ****       229.0000  27.0000  14.2500 Du        
  11305 ****       229.0000  27.0000  14.5000 Du        
  11306 ****       229.0000  27.0000  14.7500 Du        
  11307 ****       229.0000  27.0000  15.0000 Du        
  11308 ****       229.0000  27.2500  12.2500 Du        
  11309 ****       229.0000  27.2500  12.5000 Du        
  11310 ****       229.0000  27.2500  12.7500 Du        
  11311 ****       229.0000  27.2500  13.0000 Du        
  11312 ****       229.0000  27.2500  13.2500 Du        
  11313 ****       229.0000  27.2500  13.5000 Du        
  11314 ****       229.0000  27.2500  13.7500 Du        
  11315 ****       229.0000  27.2500  14.0000 Du        
  11316 ****       229.0000  27.2500  14.2500 Du        
  11317 ****       229.0000  27.2500  14.5000 Du        
  11318 ****       229.0000  27.2500  14.7500 Du        
  11319 ****       229.0000  27.2500  15.0000 Du        
  11320 ****       229.0000  27.5000  12.2500 Du        
  11321 ****       229.0000  27.5000  12.5000 Du        
  11322 ****       229.0000  27.5000  12.7500 Du        
  11323 ****       229.0000  27.5000  13.0000 Du        
  11324 ****       229.0000  27.5000  13.2500 Du        
  11325 ****       229.0000  27.5000  13.5000 Du        
  11326 ****       229.0000  27.5000  13.7500 Du        
  11327 ****       229.0000  27.5000  14.0000 Du        
  11328 ****       229.0000  27.5000  14.2500 Du        
  11329 ****       229.0000  27.5000  14.5000 Du        
  11330 ****       229.0000  27.5000  14.7500 Du        
  11331 ****       229.0000  27.7500  12.2500 Du        
  11332 ****       229.0000  27.7500  12.5000 Du        
  11333 ****       229.0000  27.7500  12.7500 Du        
  11334 ****       229.0000  27.7500  13.0000 Du        
  11335 ****       229.0000  27.7500  13.2500 Du        
  11336 ****       229.0000  27.7500  13.5000 Du        
  11337 ****       229.0000  27.7500  13.7500 Du        
  11338 ****       229.0000  27.7500  14.0000 Du        
  11339 ****       229.0000  27.7500  14.2500 Du        
  11340 ****       229.0000  27.7500  14.5000 Du        
  11341 ****       229.0000  27.7500  14.7500 Du        
  11342 ****       229.0000  28.0000  12.2500 Du        
  11343 ****       229.0000  28.0000  12.5000 Du        
  11344 ****       229.0000  28.0000  12.7500 Du        
  11345 ****       229.0000  28.0000  13.0000 Du        
  11346 ****       229.0000  28.0000  13.2500 Du        
  11347 ****       229.0000  28.0000  13.5000 Du        
  11348 ****       229.0000  28.0000  13.7500 Du        
  11349 ****       229.0000  28.0000  14.0000 Du        
  11350 ****       229.0000  28.0000  14.2500 Du        
  11351 ****       229.0000  28.2500  12.5000 Du        
  11352 ****       229.0000  28.2500  12.7500 Du        
  11353 ****       229.0000  28.2500  13.0000 Du        
  11354 ****       229.0000  28.2500  13.2500 Du        
  11355 ****       229.0000  28.2500  13.5000 Du        
  11356 ****       229.0000  28.2500  13.7500 Du        
  11357 ****       229.0000  28.2500  14.0000 Du        
  11358 ****       229.0000  28.5000  12.7500 Du        
  11359 ****       229.0000  28.5000  13.0000 Du        
  11360 ****       229.0000  28.5000  13.2500 Du        
  11361 ****       229.0000  28.5000  13.5000 Du        
  11362 ****       229.0000  28.5000  13.7500 Du        
  11363 ****       229.0000  28.7500  13.0000 Du        
  11364 ****       229.0000  28.7500  13.2500 Du        
  11365 ****       229.0000  28.7500  13.5000 Du        
  11366 ****       229.2500  10.2500  15.7500 Du        
  11367 ****       229.2500  10.2500  16.0000 Du        
  11368 ****       229.2500  10.5000  15.0000 Du        
  11369 ****       229.2500  10.5000  15.2500 Du        
  11370 ****       229.2500  10.5000  15.5000 Du        
  11371 ****       229.2500  10.5000  15.7500 Du        
  11372 ****       229.2500  10.5000  16.0000 Du        
  11373 ****       229.2500  10.5000  16.2500 Du        
  11374 ****       229.2500  10.7500  14.5000 Du        
  11375 ****       229.2500  10.7500  14.7500 Du        
  11376 ****       229.2500  10.7500  15.0000 Du        
  11377 ****       229.2500  10.7500  15.2500 Du        
  11378 ****       229.2500  10.7500  15.5000 Du        
  11379 ****       229.2500  10.7500  15.7500 Du        
  11380 ****       229.2500  10.7500  16.0000 Du        
  11381 ****       229.2500  10.7500  16.2500 Du        
  11382 ****       229.2500  11.0000  14.2500 Du        
  11383 ****       229.2500  11.0000  14.5000 Du        
  11384 ****       229.2500  11.0000  14.7500 Du        
  11385 ****       229.2500  11.0000  15.0000 Du        
  11386 ****       229.2500  11.0000  15.2500 Du        
  11387 ****       229.2500  11.0000  15.5000 Du        
  11388 ****       229.2500  11.0000  15.7500 Du        
  11389 ****       229.2500  11.0000  16.0000 Du        
  11390 ****       229.2500  11.0000  16.2500 Du        
  11391 ****       229.2500  11.2500  14.0000 Du        
  11392 ****       229.2500  11.2500  14.2500 Du        
  11393 ****       229.2500  11.2500  14.5000 Du        
  11394 ****       229.2500  11.2500  14.7500 Du        
  11395 ****       229.2500  11.2500  15.0000 Du        
  11396 ****       229.2500  11.2500  15.2500 Du        
  11397 ****       229.2500  11.2500  15.5000 Du        
  11398 ****       229.2500  11.2500  15.7500 Du        
  11399 ****       229.2500  11.2500  16.0000 Du        
  11400 ****       229.2500  11.2500  16.2500 Du        
  11401 ****       229.2500  11.5000  13.7500 Du        
  11402 ****       229.2500  11.5000  14.0000 Du        
  11403 ****       229.2500  11.5000  14.2500 Du        
  11404 ****       229.2500  11.5000  14.5000 Du        
  11405 ****       229.2500  11.5000  14.7500 Du        
  11406 ****       229.2500  11.7500  13.7500 Du        
  11407 ****       229.2500  11.7500  14.0000 Du        
  11408 ****       229.2500  11.7500  14.2500 Du        
  11409 ****       229.2500  11.7500  18.0000 Du        
  11410 ****       229.2500  11.7500  18.2500 Du        
  11411 ****       229.2500  11.7500  18.5000 Du        
  11412 ****       229.2500  12.0000  13.7500 Du        
  11413 ****       229.2500  12.0000  14.0000 Du        
  11414 ****       229.2500  12.0000  18.0000 Du        
  11415 ****       229.2500  12.0000  18.2500 Du        
  11416 ****       229.2500  12.0000  18.5000 Du        
  11417 ****       229.2500  12.0000  18.7500 Du        
  11418 ****       229.2500  12.2500  18.0000 Du        
  11419 ****       229.2500  12.2500  18.2500 Du        
  11420 ****       229.2500  12.2500  18.5000 Du        
  11421 ****       229.2500  12.2500  18.7500 Du        
  11422 ****       229.2500  14.0000  14.0000 Du        
  11423 ****       229.2500  14.2500  14.0000 Du        
  11424 ****       229.2500  14.5000  14.0000 Du        
  11425 ****       229.2500  14.7500  14.0000 Du        
  11426 ****       229.2500  15.0000  14.0000 Du        
  11427 ****       229.2500  15.0000  14.2500 Du        
  11428 ****       229.2500  15.2500  13.7500 Du        
  11429 ****       229.2500  15.2500  14.0000 Du        
  11430 ****       229.2500  15.2500  14.2500 Du        
  11431 ****       229.2500  15.2500  14.5000 Du        
  11432 ****       229.2500  15.5000  13.7500 Du        
  11433 ****       229.2500  15.5000  14.0000 Du        
  11434 ****       229.2500  15.5000  14.2500 Du        
  11435 ****       229.2500  15.5000  14.5000 Du        
  11436 ****       229.2500  15.7500  13.7500 Du        
  11437 ****       229.2500  15.7500  14.0000 Du        
  11438 ****       229.2500  15.7500  14.2500 Du        
  11439 ****       229.2500  15.7500  14.5000 Du        
  11440 ****       229.2500  15.7500  14.7500 Du        
  11441 ****       229.2500  15.7500  15.0000 Du        
  11442 ****       229.2500  16.0000  13.5000 Du        
  11443 ****       229.2500  16.0000  13.7500 Du        
  11444 ****       229.2500  16.0000  14.0000 Du        
  11445 ****       229.2500  16.0000  14.2500 Du        
  11446 ****       229.2500  16.0000  14.5000 Du        
  11447 ****       229.2500  16.0000  14.7500 Du        
  11448 ****       229.2500  16.0000  15.0000 Du        
  11449 ****       229.2500  16.2500  13.5000 Du        
  11450 ****       229.2500  16.2500  13.7500 Du        
  11451 ****       229.2500  16.2500  14.0000 Du        
  11452 ****       229.2500  16.2500  14.2500 Du        
  11453 ****       229.2500  16.2500  14.5000 Du        
  11454 ****       229.2500  16.2500  14.7500 Du        
  11455 ****       229.2500  16.2500  15.0000 Du        
  11456 ****       229.2500  16.5000  13.7500 Du        
  11457 ****       229.2500  16.5000  14.0000 Du        
  11458 ****       229.2500  16.5000  14.2500 Du        
  11459 ****       229.2500  16.5000  14.5000 Du        
  11460 ****       229.2500  16.5000  14.7500 Du        
  11461 ****       229.2500  16.5000  15.0000 Du        
  11462 ****       229.2500  16.5000  15.2500 Du        
  11463 ****       229.2500  16.7500  13.2500 Du        
  11464 ****       229.2500  16.7500  13.5000 Du        
  11465 ****       229.2500  16.7500  13.7500 Du        
  11466 ****       229.2500  16.7500  14.0000 Du        
  11467 ****       229.2500  16.7500  14.2500 Du        
  11468 ****       229.2500  16.7500  14.5000 Du        
  11469 ****       229.2500  16.7500  14.7500 Du        
  11470 ****       229.2500  16.7500  15.0000 Du        
  11471 ****       229.2500  16.7500  15.2500 Du        
  11472 ****       229.2500  17.0000  13.2500 Du        
  11473 ****       229.2500  17.0000  13.5000 Du        
  11474 ****       229.2500  17.0000  13.7500 Du        
  11475 ****       229.2500  17.0000  14.0000 Du        
  11476 ****       229.2500  17.0000  14.2500 Du        
  11477 ****       229.2500  17.0000  14.5000 Du        
  11478 ****       229.2500  17.0000  14.7500 Du        
  11479 ****       229.2500  17.0000  15.0000 Du        
  11480 ****       229.2500  17.0000  15.2500 Du        
  11481 ****       229.2500  17.2500  13.0000 Du        
  11482 ****       229.2500  17.2500  13.2500 Du        
  11483 ****       229.2500  17.2500  13.5000 Du        
  11484 ****       229.2500  17.2500  13.7500 Du        
  11485 ****       229.2500  17.2500  14.0000 Du        
  11486 ****       229.2500  17.2500  14.2500 Du        
  11487 ****       229.2500  17.2500  14.5000 Du        
  11488 ****       229.2500  17.2500  14.7500 Du        
  11489 ****       229.2500  17.2500  15.0000 Du        
  11490 ****       229.2500  17.2500  15.2500 Du        
  11491 ****       229.2500  17.5000  13.2500 Du        
  11492 ****       229.2500  17.7500  13.0000 Du        
  11493 ****       229.2500  17.7500  13.2500 Du        
  11494 ****       229.2500  18.0000  13.0000 Du        
  11495 ****       229.2500  18.0000  13.2500 Du        
  11496 ****       229.2500  18.2500  12.7500 Du        
  11497 ****       229.2500  18.2500  13.0000 Du        
  11498 ****       229.2500  18.5000  12.0000 Du        
  11499 ****       229.2500  18.5000  12.2500 Du        
  11500 ****       229.2500  18.5000  12.5000 Du        
  11501 ****       229.2500  18.5000  12.7500 Du        
  11502 ****       229.2500  18.7500  11.2500 Du        
  11503 ****       229.2500  18.7500  11.5000 Du        
  11504 ****       229.2500  18.7500  11.7500 Du        
  11505 ****       229.2500  18.7500  12.0000 Du        
  11506 ****       229.2500  18.7500  12.2500 Du        
  11507 ****       229.2500  18.7500  12.5000 Du        
  11508 ****       229.2500  18.7500  12.7500 Du        
  11509 ****       229.2500  18.7500  13.0000 Du        
  11510 ****       229.2500  19.0000  11.0000 Du        
  11511 ****       229.2500  19.0000  11.2500 Du        
  11512 ****       229.2500  19.0000  11.5000 Du        
  11513 ****       229.2500  19.0000  11.7500 Du        
  11514 ****       229.2500  19.0000  12.0000 Du        
  11515 ****       229.2500  19.0000  12.2500 Du        
  11516 ****       229.2500  19.0000  12.5000 Du        
  11517 ****       229.2500  19.0000  12.7500 Du        
  11518 ****       229.2500  19.0000  13.0000 Du        
  11519 ****       229.2500  19.2500  10.7500 Du        
  11520 ****       229.2500  19.2500  11.0000 Du        
  11521 ****       229.2500  19.2500  11.2500 Du        
  11522 ****       229.2500  19.2500  11.5000 Du        
  11523 ****       229.2500  19.2500  11.7500 Du        
  11524 ****       229.2500  19.2500  12.0000 Du        
  11525 ****       229.2500  19.2500  12.2500 Du        
  11526 ****       229.2500  19.2500  12.5000 Du        
  11527 ****       229.2500  19.2500  12.7500 Du        
  11528 ****       229.2500  19.5000   9.2500 Du        
  11529 ****       229.2500  19.5000  10.7500 Du        
  11530 ****       229.2500  19.5000  11.0000 Du        
  11531 ****       229.2500  19.5000  11.2500 Du        
  11532 ****       229.2500  19.5000  11.5000 Du        
  11533 ****       229.2500  19.5000  11.7500 Du        
  11534 ****       229.2500  19.5000  12.0000 Du        
  11535 ****       229.2500  19.5000  12.2500 Du        
  11536 ****       229.2500  19.5000  12.5000 Du        
  11537 ****       229.2500  19.7500   9.2500 Du        
  11538 ****       229.2500  19.7500   9.5000 Du        
  11539 ****       229.2500  19.7500   9.7500 Du        
  11540 ****       229.2500  19.7500  10.0000 Du        
  11541 ****       229.2500  19.7500  10.2500 Du        
  11542 ****       229.2500  19.7500  10.5000 Du        
  11543 ****       229.2500  19.7500  10.7500 Du        
  11544 ****       229.2500  19.7500  11.0000 Du        
  11545 ****       229.2500  19.7500  11.2500 Du        
  11546 ****       229.2500  19.7500  11.5000 Du        
  11547 ****       229.2500  19.7500  11.7500 Du        
  11548 ****       229.2500  19.7500  12.0000 Du        
  11549 ****       229.2500  19.7500  12.2500 Du        
  11550 ****       229.2500  19.7500  12.5000 Du        
  11551 ****       229.2500  19.7500  12.7500 Du        
  11552 ****       229.2500  20.0000   9.7500 Du        
  11553 ****       229.2500  20.0000  10.0000 Du        
  11554 ****       229.2500  20.0000  10.2500 Du        
  11555 ****       229.2500  20.0000  10.5000 Du        
  11556 ****       229.2500  20.0000  10.7500 Du        
  11557 ****       229.2500  20.0000  11.0000 Du        
  11558 ****       229.2500  20.0000  11.2500 Du        
  11559 ****       229.2500  20.0000  11.5000 Du        
  11560 ****       229.2500  20.0000  11.7500 Du        
  11561 ****       229.2500  20.0000  12.0000 Du        
  11562 ****       229.2500  20.0000  12.2500 Du        
  11563 ****       229.2500  20.0000  12.5000 Du        
  11564 ****       229.2500  20.0000  12.7500 Du        
  11565 ****       229.2500  20.2500  10.2500 Du        
  11566 ****       229.2500  20.2500  10.5000 Du        
  11567 ****       229.2500  20.2500  10.7500 Du        
  11568 ****       229.2500  20.2500  11.0000 Du        
  11569 ****       229.2500  20.2500  11.2500 Du        
  11570 ****       229.2500  20.2500  11.5000 Du        
  11571 ****       229.2500  20.2500  11.7500 Du        
  11572 ****       229.2500  20.2500  12.0000 Du        
  11573 ****       229.2500  20.2500  12.2500 Du        
  11574 ****       229.2500  20.2500  12.5000 Du        
  11575 ****       229.2500  20.2500  12.7500 Du        
  11576 ****       229.2500  20.5000  10.2500 Du        
  11577 ****       229.2500  20.5000  10.5000 Du        
  11578 ****       229.2500  20.5000  10.7500 Du        
  11579 ****       229.2500  20.5000  11.0000 Du        
  11580 ****       229.2500  20.5000  11.2500 Du        
  11581 ****       229.2500  20.5000  11.5000 Du        
  11582 ****       229.2500  20.5000  11.7500 Du        
  11583 ****       229.2500  20.5000  12.0000 Du        
  11584 ****       229.2500  20.5000  12.2500 Du        
  11585 ****       229.2500  20.5000  12.5000 Du        
  11586 ****       229.2500  20.5000  12.7500 Du        
  11587 ****       229.2500  20.7500  10.5000 Du        
  11588 ****       229.2500  20.7500  10.7500 Du        
  11589 ****       229.2500  20.7500  11.0000 Du        
  11590 ****       229.2500  20.7500  11.2500 Du        
  11591 ****       229.2500  20.7500  11.5000 Du        
  11592 ****       229.2500  20.7500  11.7500 Du        
  11593 ****       229.2500  20.7500  12.0000 Du        
  11594 ****       229.2500  20.7500  12.2500 Du        
  11595 ****       229.2500  20.7500  12.5000 Du        
  11596 ****       229.2500  20.7500  12.7500 Du        
  11597 ****       229.2500  20.7500  13.0000 Du        
  11598 ****       229.2500  21.0000  10.7500 Du        
  11599 ****       229.2500  21.0000  11.0000 Du        
  11600 ****       229.2500  21.0000  11.2500 Du        
  11601 ****       229.2500  21.0000  11.5000 Du        
  11602 ****       229.2500  21.0000  11.7500 Du        
  11603 ****       229.2500  21.0000  12.0000 Du        
  11604 ****       229.2500  21.0000  12.2500 Du        
  11605 ****       229.2500  21.0000  12.5000 Du        
  11606 ****       229.2500  21.0000  12.7500 Du        
  11607 ****       229.2500  21.0000  13.0000 Du        
  11608 ****       229.2500  21.2500  10.7500 Du        
  11609 ****       229.2500  21.2500  11.0000 Du        
  11610 ****       229.2500  21.2500  11.2500 Du        
  11611 ****       229.2500  21.2500  11.5000 Du        
  11612 ****       229.2500  21.2500  11.7500 Du        
  11613 ****       229.2500  21.2500  12.0000 Du        
  11614 ****       229.2500  21.2500  12.2500 Du        
  11615 ****       229.2500  21.2500  12.5000 Du        
  11616 ****       229.2500  21.2500  12.7500 Du        
  11617 ****       229.2500  21.2500  13.0000 Du        
  11618 ****       229.2500  21.5000  11.0000 Du        
  11619 ****       229.2500  21.5000  11.2500 Du        
  11620 ****       229.2500  21.5000  11.5000 Du        
  11621 ****       229.2500  21.5000  11.7500 Du        
  11622 ****       229.2500  21.5000  12.0000 Du        
  11623 ****       229.2500  21.5000  12.2500 Du        
  11624 ****       229.2500  21.5000  12.5000 Du        
  11625 ****       229.2500  21.5000  12.7500 Du        
  11626 ****       229.2500  21.5000  13.0000 Du        
  11627 ****       229.2500  21.7500  11.0000 Du        
  11628 ****       229.2500  21.7500  11.2500 Du        
  11629 ****       229.2500  21.7500  11.5000 Du        
  11630 ****       229.2500  21.7500  11.7500 Du        
  11631 ****       229.2500  21.7500  12.0000 Du        
  11632 ****       229.2500  21.7500  12.2500 Du        
  11633 ****       229.2500  21.7500  12.5000 Du        
  11634 ****       229.2500  21.7500  12.7500 Du        
  11635 ****       229.2500  22.0000  11.0000 Du        
  11636 ****       229.2500  22.0000  11.2500 Du        
  11637 ****       229.2500  22.0000  11.5000 Du        
  11638 ****       229.2500  22.0000  11.7500 Du        
  11639 ****       229.2500  22.0000  12.0000 Du        
  11640 ****       229.2500  22.0000  12.2500 Du        
  11641 ****       229.2500  22.0000  12.5000 Du        
  11642 ****       229.2500  22.2500  11.0000 Du        
  11643 ****       229.2500  22.2500  11.2500 Du        
  11644 ****       229.2500  22.2500  11.5000 Du        
  11645 ****       229.2500  22.2500  11.7500 Du        
  11646 ****       229.2500  22.2500  12.0000 Du        
  11647 ****       229.2500  22.2500  12.2500 Du        
  11648 ****       229.2500  22.5000  11.2500 Du        
  11649 ****       229.2500  22.5000  11.5000 Du        
  11650 ****       229.2500  22.5000  11.7500 Du        
  11651 ****       229.2500  22.5000  12.0000 Du        
  11652 ****       229.2500  22.5000  12.2500 Du        
  11653 ****       229.2500  22.7500  11.0000 Du        
  11654 ****       229.2500  22.7500  11.2500 Du        
  11655 ****       229.2500  22.7500  11.5000 Du        
  11656 ****       229.2500  22.7500  11.7500 Du        
  11657 ****       229.2500  22.7500  12.0000 Du        
  11658 ****       229.2500  22.7500  12.2500 Du        
  11659 ****       229.2500  23.0000  11.0000 Du        
  11660 ****       229.2500  23.0000  11.2500 Du        
  11661 ****       229.2500  23.0000  11.5000 Du        
  11662 ****       229.2500  23.0000  11.7500 Du        
  11663 ****       229.2500  23.0000  12.0000 Du        
  11664 ****       229.2500  23.2500  11.0000 Du        
  11665 ****       229.2500  23.2500  11.2500 Du        
  11666 ****       229.2500  23.2500  11.5000 Du        
  11667 ****       229.2500  23.2500  11.7500 Du        
  11668 ****       229.2500  23.2500  12.0000 Du        
  11669 ****       229.2500  23.5000  11.0000 Du        
  11670 ****       229.2500  23.5000  11.2500 Du        
  11671 ****       229.2500  23.5000  11.5000 Du        
  11672 ****       229.2500  23.5000  11.7500 Du        
  11673 ****       229.2500  23.5000  12.0000 Du        
  11674 ****       229.2500  23.5000  12.2500 Du        
  11675 ****       229.2500  23.7500  11.2500 Du        
  11676 ****       229.2500  23.7500  11.5000 Du        
  11677 ****       229.2500  23.7500  11.7500 Du        
  11678 ****       229.2500  23.7500  12.0000 Du        
  11679 ****       229.2500  23.7500  12.2500 Du        
  11680 ****       229.2500  24.0000  11.5000 Du        
  11681 ****       229.2500  24.0000  11.7500 Du        
  11682 ****       229.2500  24.0000  12.0000 Du        
  11683 ****       229.2500  24.0000  12.2500 Du        
  11684 ****       229.2500  24.0000  12.5000 Du        
  11685 ****       229.2500  24.2500  12.0000 Du        
  11686 ****       229.2500  24.2500  12.2500 Du        
  11687 ****       229.2500  24.2500  12.5000 Du        
  11688 ****       229.2500  24.2500  12.7500 Du        
  11689 ****       229.2500  24.2500  13.0000 Du        
  11690 ****       229.2500  24.2500  13.2500 Du        
  11691 ****       229.2500  24.5000  12.2500 Du        
  11692 ****       229.2500  24.5000  12.5000 Du        
  11693 ****       229.2500  24.5000  12.7500 Du        
  11694 ****       229.2500  24.5000  13.0000 Du        
  11695 ****       229.2500  24.5000  13.2500 Du        
  11696 ****       229.2500  24.5000  13.5000 Du        
  11697 ****       229.2500  24.5000  13.7500 Du        
  11698 ****       229.2500  24.5000  14.0000 Du        
  11699 ****       229.2500  24.7500  12.2500 Du        
  11700 ****       229.2500  24.7500  12.5000 Du        
  11701 ****       229.2500  24.7500  12.7500 Du        
  11702 ****       229.2500  24.7500  13.0000 Du        
  11703 ****       229.2500  24.7500  13.2500 Du        
  11704 ****       229.2500  24.7500  13.5000 Du        
  11705 ****       229.2500  24.7500  13.7500 Du        
  11706 ****       229.2500  24.7500  14.0000 Du        
  11707 ****       229.2500  24.7500  14.2500 Du        
  11708 ****       229.2500  25.0000  12.5000 Du        
  11709 ****       229.2500  25.0000  12.7500 Du        
  11710 ****       229.2500  25.0000  13.0000 Du        
  11711 ****       229.2500  25.0000  13.2500 Du        
  11712 ****       229.2500  25.0000  13.5000 Du        
  11713 ****       229.2500  25.0000  13.7500 Du        
  11714 ****       229.2500  25.0000  14.0000 Du        
  11715 ****       229.2500  25.0000  14.2500 Du        
  11716 ****       229.2500  25.0000  14.5000 Du        
  11717 ****       229.2500  25.2500  12.5000 Du        
  11718 ****       229.2500  25.2500  12.7500 Du        
  11719 ****       229.2500  25.2500  13.0000 Du        
  11720 ****       229.2500  25.2500  13.2500 Du        
  11721 ****       229.2500  25.2500  13.5000 Du        
  11722 ****       229.2500  25.2500  13.7500 Du        
  11723 ****       229.2500  25.2500  14.0000 Du        
  11724 ****       229.2500  25.2500  14.2500 Du        
  11725 ****       229.2500  25.2500  14.5000 Du        
  11726 ****       229.2500  25.5000  12.5000 Du        
  11727 ****       229.2500  25.5000  12.7500 Du        
  11728 ****       229.2500  25.5000  13.0000 Du        
  11729 ****       229.2500  25.5000  13.2500 Du        
  11730 ****       229.2500  25.5000  13.5000 Du        
  11731 ****       229.2500  25.5000  13.7500 Du        
  11732 ****       229.2500  25.5000  14.0000 Du        
  11733 ****       229.2500  25.5000  14.2500 Du        
  11734 ****       229.2500  25.5000  14.5000 Du        
  11735 ****       229.2500  25.7500  12.5000 Du        
  11736 ****       229.2500  25.7500  12.7500 Du        
  11737 ****       229.2500  25.7500  13.0000 Du        
  11738 ****       229.2500  25.7500  13.2500 Du        
  11739 ****       229.2500  25.7500  13.5000 Du        
  11740 ****       229.2500  25.7500  13.7500 Du        
  11741 ****       229.2500  25.7500  14.0000 Du        
  11742 ****       229.2500  25.7500  14.2500 Du        
  11743 ****       229.2500  25.7500  14.5000 Du        
  11744 ****       229.2500  25.7500  14.7500 Du        
  11745 ****       229.2500  26.0000  12.5000 Du        
  11746 ****       229.2500  26.0000  12.7500 Du        
  11747 ****       229.2500  26.0000  13.0000 Du        
  11748 ****       229.2500  26.0000  13.2500 Du        
  11749 ****       229.2500  26.0000  13.5000 Du        
  11750 ****       229.2500  26.0000  13.7500 Du        
  11751 ****       229.2500  26.0000  14.0000 Du        
  11752 ****       229.2500  26.0000  14.2500 Du        
  11753 ****       229.2500  26.0000  14.5000 Du        
  11754 ****       229.2500  26.0000  14.7500 Du        
  11755 ****       229.2500  26.2500  12.5000 Du        
  11756 ****       229.2500  26.2500  12.7500 Du        
  11757 ****       229.2500  26.2500  13.0000 Du        
  11758 ****       229.2500  26.2500  13.2500 Du        
  11759 ****       229.2500  26.2500  13.5000 Du        
  11760 ****       229.2500  26.2500  13.7500 Du        
  11761 ****       229.2500  26.2500  14.0000 Du        
  11762 ****       229.2500  26.2500  14.2500 Du        
  11763 ****       229.2500  26.2500  14.5000 Du        
  11764 ****       229.2500  26.2500  14.7500 Du        
  11765 ****       229.2500  26.5000  12.5000 Du        
  11766 ****       229.2500  26.5000  12.7500 Du        
  11767 ****       229.2500  26.5000  13.0000 Du        
  11768 ****       229.2500  26.5000  13.2500 Du        
  11769 ****       229.2500  26.5000  13.5000 Du        
  11770 ****       229.2500  26.5000  13.7500 Du        
  11771 ****       229.2500  26.5000  14.0000 Du        
  11772 ****       229.2500  26.5000  14.2500 Du        
  11773 ****       229.2500  26.5000  14.5000 Du        
  11774 ****       229.2500  26.5000  14.7500 Du        
  11775 ****       229.2500  26.7500  12.5000 Du        
  11776 ****       229.2500  26.7500  12.7500 Du        
  11777 ****       229.2500  26.7500  13.0000 Du        
  11778 ****       229.2500  26.7500  13.2500 Du        
  11779 ****       229.2500  26.7500  13.5000 Du        
  11780 ****       229.2500  26.7500  13.7500 Du        
  11781 ****       229.2500  26.7500  14.0000 Du        
  11782 ****       229.2500  26.7500  14.2500 Du        
  11783 ****       229.2500  26.7500  14.5000 Du        
  11784 ****       229.2500  26.7500  14.7500 Du        
  11785 ****       229.2500  27.0000  12.5000 Du        
  11786 ****       229.2500  27.0000  12.7500 Du        
  11787 ****       229.2500  27.0000  13.0000 Du        
  11788 ****       229.2500  27.0000  13.2500 Du        
  11789 ****       229.2500  27.0000  13.5000 Du        
  11790 ****       229.2500  27.0000  13.7500 Du        
  11791 ****       229.2500  27.0000  14.0000 Du        
  11792 ****       229.2500  27.0000  14.2500 Du        
  11793 ****       229.2500  27.0000  14.5000 Du        
  11794 ****       229.2500  27.0000  14.7500 Du        
  11795 ****       229.2500  27.2500  12.2500 Du        
  11796 ****       229.2500  27.2500  12.5000 Du        
  11797 ****       229.2500  27.2500  12.7500 Du        
  11798 ****       229.2500  27.2500  13.0000 Du        
  11799 ****       229.2500  27.2500  13.2500 Du        
  11800 ****       229.2500  27.2500  13.5000 Du        
  11801 ****       229.2500  27.2500  13.7500 Du        
  11802 ****       229.2500  27.2500  14.0000 Du        
  11803 ****       229.2500  27.2500  14.2500 Du        
  11804 ****       229.2500  27.2500  14.5000 Du        
  11805 ****       229.2500  27.2500  14.7500 Du        
  11806 ****       229.2500  27.5000  12.2500 Du        
  11807 ****       229.2500  27.5000  12.5000 Du        
  11808 ****       229.2500  27.5000  12.7500 Du        
  11809 ****       229.2500  27.5000  13.0000 Du        
  11810 ****       229.2500  27.5000  13.2500 Du        
  11811 ****       229.2500  27.5000  13.5000 Du        
  11812 ****       229.2500  27.5000  13.7500 Du        
  11813 ****       229.2500  27.5000  14.0000 Du        
  11814 ****       229.2500  27.5000  14.2500 Du        
  11815 ****       229.2500  27.5000  14.5000 Du        
  11816 ****       229.2500  27.7500  12.2500 Du        
  11817 ****       229.2500  27.7500  12.5000 Du        
  11818 ****       229.2500  27.7500  12.7500 Du        
  11819 ****       229.2500  27.7500  13.0000 Du        
  11820 ****       229.2500  27.7500  13.2500 Du        
  11821 ****       229.2500  27.7500  13.5000 Du        
  11822 ****       229.2500  27.7500  13.7500 Du        
  11823 ****       229.2500  27.7500  14.0000 Du        
  11824 ****       229.2500  27.7500  14.2500 Du        
  11825 ****       229.2500  27.7500  14.5000 Du        
  11826 ****       229.2500  28.0000  12.2500 Du        
  11827 ****       229.2500  28.0000  12.5000 Du        
  11828 ****       229.2500  28.0000  12.7500 Du        
  11829 ****       229.2500  28.0000  13.0000 Du        
  11830 ****       229.2500  28.0000  13.2500 Du        
  11831 ****       229.2500  28.0000  13.5000 Du        
  11832 ****       229.2500  28.0000  13.7500 Du        
  11833 ****       229.2500  28.0000  14.0000 Du        
  11834 ****       229.2500  28.0000  14.2500 Du        
  11835 ****       229.2500  28.2500  12.5000 Du        
  11836 ****       229.2500  28.2500  12.7500 Du        
  11837 ****       229.2500  28.2500  13.0000 Du        
  11838 ****       229.2500  28.2500  13.2500 Du        
  11839 ****       229.2500  28.2500  13.5000 Du        
  11840 ****       229.2500  28.2500  13.7500 Du        
  11841 ****       229.2500  28.2500  14.0000 Du        
  11842 ****       229.2500  28.5000  12.7500 Du        
  11843 ****       229.2500  28.5000  13.0000 Du        
  11844 ****       229.2500  28.5000  13.2500 Du        
  11845 ****       229.2500  28.5000  13.5000 Du        
  11846 ****       229.2500  28.7500  13.0000 Du        
  11847 ****       229.2500  28.7500  13.2500 Du        
  11848 ****       229.5000  10.5000  15.5000 Du        
  11849 ****       229.5000  10.5000  15.7500 Du        
  11850 ****       229.5000  10.7500  14.7500 Du        
  11851 ****       229.5000  10.7500  15.0000 Du        
  11852 ****       229.5000  10.7500  15.2500 Du        
  11853 ****       229.5000  10.7500  15.5000 Du        
  11854 ****       229.5000  10.7500  15.7500 Du        
  11855 ****       229.5000  11.0000  14.7500 Du        
  11856 ****       229.5000  11.0000  15.0000 Du        
  11857 ****       229.5000  11.0000  15.2500 Du        
  11858 ****       229.5000  11.0000  15.5000 Du        
  11859 ****       229.5000  11.0000  15.7500 Du        
  11860 ****       229.5000  12.0000  18.5000 Du        
  11861 ****       229.5000  12.0000  18.7500 Du        
  11862 ****       229.5000  12.2500  18.5000 Du        
  11863 ****       229.5000  14.7500  14.0000 Du        
  11864 ****       229.5000  15.0000  13.7500 Du        
  11865 ****       229.5000  15.0000  14.0000 Du        
  11866 ****       229.5000  15.0000  14.2500 Du        
  11867 ****       229.5000  15.2500  13.7500 Du        
  11868 ****       229.5000  15.2500  14.0000 Du        
  11869 ****       229.5000  15.2500  14.2500 Du        
  11870 ****       229.5000  15.2500  14.5000 Du        
  11871 ****       229.5000  15.5000  13.7500 Du        
  11872 ****       229.5000  15.5000  14.0000 Du        
  11873 ****       229.5000  15.5000  14.2500 Du        
  11874 ****       229.5000  15.5000  14.5000 Du        
  11875 ****       229.5000  15.7500  13.7500 Du        
  11876 ****       229.5000  15.7500  14.0000 Du        
  11877 ****       229.5000  15.7500  14.2500 Du        
  11878 ****       229.5000  15.7500  14.5000 Du        
  11879 ****       229.5000  15.7500  14.7500 Du        
  11880 ****       229.5000  16.0000  13.5000 Du        
  11881 ****       229.5000  16.0000  13.7500 Du        
  11882 ****       229.5000  16.0000  14.0000 Du        
  11883 ****       229.5000  16.0000  14.2500 Du        
  11884 ****       229.5000  16.0000  14.5000 Du        
  11885 ****       229.5000  16.0000  14.7500 Du        
  11886 ****       229.5000  16.0000  15.0000 Du        
  11887 ****       229.5000  16.2500  13.5000 Du        
  11888 ****       229.5000  16.2500  13.7500 Du        
  11889 ****       229.5000  16.2500  14.0000 Du        
  11890 ****       229.5000  16.2500  14.2500 Du        
  11891 ****       229.5000  16.2500  14.5000 Du        
  11892 ****       229.5000  16.2500  14.7500 Du        
  11893 ****       229.5000  16.2500  15.0000 Du        
  11894 ****       229.5000  16.5000  13.2500 Du        
  11895 ****       229.5000  16.5000  13.5000 Du        
  11896 ****       229.5000  16.5000  13.7500 Du        
  11897 ****       229.5000  16.5000  14.0000 Du        
  11898 ****       229.5000  16.5000  14.2500 Du        
  11899 ****       229.5000  16.5000  14.5000 Du        
  11900 ****       229.5000  16.5000  14.7500 Du        
  11901 ****       229.5000  16.5000  15.0000 Du        
  11902 ****       229.5000  16.5000  15.2500 Du        
  11903 ****       229.5000  16.7500  13.2500 Du        
  11904 ****       229.5000  16.7500  13.5000 Du        
  11905 ****       229.5000  16.7500  13.7500 Du        
  11906 ****       229.5000  16.7500  14.0000 Du        
  11907 ****       229.5000  16.7500  14.2500 Du        
  11908 ****       229.5000  16.7500  14.5000 Du        
  11909 ****       229.5000  16.7500  14.7500 Du        
  11910 ****       229.5000  16.7500  15.0000 Du        
  11911 ****       229.5000  16.7500  15.2500 Du        
  11912 ****       229.5000  17.0000  13.2500 Du        
  11913 ****       229.5000  17.0000  13.5000 Du        
  11914 ****       229.5000  17.0000  13.7500 Du        
  11915 ****       229.5000  17.0000  14.0000 Du        
  11916 ****       229.5000  17.0000  14.2500 Du        
  11917 ****       229.5000  17.0000  14.5000 Du        
  11918 ****       229.5000  17.0000  14.7500 Du        
  11919 ****       229.5000  17.0000  15.0000 Du        
  11920 ****       229.5000  17.0000  15.2500 Du        
  11921 ****       229.5000  17.2500  13.0000 Du        
  11922 ****       229.5000  17.2500  13.2500 Du        
  11923 ****       229.5000  17.2500  13.5000 Du        
  11924 ****       229.5000  17.2500  13.7500 Du        
  11925 ****       229.5000  17.2500  14.0000 Du        
  11926 ****       229.5000  17.2500  14.2500 Du        
  11927 ****       229.5000  17.2500  14.5000 Du        
  11928 ****       229.5000  17.2500  14.7500 Du        
  11929 ****       229.5000  17.2500  15.0000 Du        
  11930 ****       229.5000  17.2500  15.2500 Du        
  11931 ****       229.5000  17.5000  13.0000 Du        
  11932 ****       229.5000  17.5000  13.2500 Du        
  11933 ****       229.5000  17.5000  13.5000 Du        
  11934 ****       229.5000  17.5000  13.7500 Du        
  11935 ****       229.5000  17.5000  14.0000 Du        
  11936 ****       229.5000  17.5000  14.2500 Du        
  11937 ****       229.5000  17.5000  14.5000 Du        
  11938 ****       229.5000  17.5000  14.7500 Du        
  11939 ****       229.5000  17.7500  12.7500 Du        
  11940 ****       229.5000  17.7500  13.0000 Du        
  11941 ****       229.5000  17.7500  13.2500 Du        
  11942 ****       229.5000  17.7500  13.5000 Du        
  11943 ****       229.5000  17.7500  13.7500 Du        
  11944 ****       229.5000  17.7500  14.0000 Du        
  11945 ****       229.5000  17.7500  14.2500 Du        
  11946 ****       229.5000  18.0000  12.5000 Du        
  11947 ****       229.5000  18.0000  12.7500 Du        
  11948 ****       229.5000  18.0000  13.0000 Du        
  11949 ****       229.5000  18.0000  13.2500 Du        
  11950 ****       229.5000  18.0000  13.5000 Du        
  11951 ****       229.5000  18.0000  13.7500 Du        
  11952 ****       229.5000  18.0000  14.0000 Du        
  11953 ****       229.5000  18.2500  12.0000 Du        
  11954 ****       229.5000  18.2500  12.2500 Du        
  11955 ****       229.5000  18.2500  12.5000 Du        
  11956 ****       229.5000  18.2500  12.7500 Du        
  11957 ****       229.5000  18.2500  13.0000 Du        
  11958 ****       229.5000  18.2500  13.2500 Du        
  11959 ****       229.5000  18.2500  13.5000 Du        
  11960 ****       229.5000  18.5000  11.7500 Du        
  11961 ****       229.5000  18.5000  12.0000 Du        
  11962 ****       229.5000  18.5000  12.2500 Du        
  11963 ****       229.5000  18.5000  12.5000 Du        
  11964 ****       229.5000  18.5000  12.7500 Du        
  11965 ****       229.5000  18.5000  13.0000 Du        
  11966 ****       229.5000  18.5000  13.2500 Du        
  11967 ****       229.5000  18.5000  13.5000 Du        
  11968 ****       229.5000  18.7500  11.5000 Du        
  11969 ****       229.5000  18.7500  11.7500 Du        
  11970 ****       229.5000  18.7500  12.0000 Du        
  11971 ****       229.5000  18.7500  12.2500 Du        
  11972 ****       229.5000  18.7500  12.5000 Du        
  11973 ****       229.5000  18.7500  12.7500 Du        
  11974 ****       229.5000  18.7500  13.0000 Du        
  11975 ****       229.5000  18.7500  13.2500 Du        
  11976 ****       229.5000  19.0000  11.0000 Du        
  11977 ****       229.5000  19.0000  11.2500 Du        
  11978 ****       229.5000  19.0000  11.5000 Du        
  11979 ****       229.5000  19.0000  11.7500 Du        
  11980 ****       229.5000  19.0000  12.0000 Du        
  11981 ****       229.5000  19.0000  12.2500 Du        
  11982 ****       229.5000  19.0000  12.5000 Du        
  11983 ****       229.5000  19.0000  12.7500 Du        
  11984 ****       229.5000  19.0000  13.0000 Du        
  11985 ****       229.5000  19.0000  13.2500 Du        
  11986 ****       229.5000  19.2500  10.5000 Du        
  11987 ****       229.5000  19.2500  10.7500 Du        
  11988 ****       229.5000  19.2500  11.0000 Du        
  11989 ****       229.5000  19.2500  11.2500 Du        
  11990 ****       229.5000  19.2500  11.5000 Du        
  11991 ****       229.5000  19.2500  11.7500 Du        
  11992 ****       229.5000  19.2500  12.0000 Du        
  11993 ****       229.5000  19.2500  12.2500 Du        
  11994 ****       229.5000  19.2500  12.5000 Du        
  11995 ****       229.5000  19.2500  12.7500 Du        
  11996 ****       229.5000  19.2500  13.0000 Du        
  11997 ****       229.5000  19.2500  13.2500 Du        
  11998 ****       229.5000  19.5000   9.2500 Du        
  11999 ****       229.5000  19.5000   9.5000 Du        
  12000 ****       229.5000  19.5000   9.7500 Du        
  12001 ****       229.5000  19.5000  10.0000 Du        
  12002 ****       229.5000  19.5000  10.2500 Du        
  12003 ****       229.5000  19.5000  10.5000 Du        
  12004 ****       229.5000  19.5000  10.7500 Du        
  12005 ****       229.5000  19.5000  11.0000 Du        
  12006 ****       229.5000  19.5000  11.2500 Du        
  12007 ****       229.5000  19.5000  11.5000 Du        
  12008 ****       229.5000  19.5000  11.7500 Du        
  12009 ****       229.5000  19.5000  12.0000 Du        
  12010 ****       229.5000  19.5000  12.2500 Du        
  12011 ****       229.5000  19.5000  12.5000 Du        
  12012 ****       229.5000  19.5000  12.7500 Du        
  12013 ****       229.5000  19.5000  13.0000 Du        
  12014 ****       229.5000  19.7500   9.2500 Du        
  12015 ****       229.5000  19.7500   9.5000 Du        
  12016 ****       229.5000  19.7500   9.7500 Du        
  12017 ****       229.5000  19.7500  10.0000 Du        
  12018 ****       229.5000  19.7500  10.2500 Du        
  12019 ****       229.5000  19.7500  10.5000 Du        
  12020 ****       229.5000  19.7500  10.7500 Du        
  12021 ****       229.5000  19.7500  11.0000 Du        
  12022 ****       229.5000  19.7500  11.2500 Du        
  12023 ****       229.5000  19.7500  11.5000 Du        
  12024 ****       229.5000  19.7500  11.7500 Du        
  12025 ****       229.5000  19.7500  12.0000 Du        
  12026 ****       229.5000  19.7500  12.2500 Du        
  12027 ****       229.5000  19.7500  12.5000 Du        
  12028 ****       229.5000  19.7500  12.7500 Du        
  12029 ****       229.5000  19.7500  13.0000 Du        
  12030 ****       229.5000  20.0000   9.2500 Du        
  12031 ****       229.5000  20.0000   9.5000 Du        
  12032 ****       229.5000  20.0000   9.7500 Du        
  12033 ****       229.5000  20.0000  10.0000 Du        
  12034 ****       229.5000  20.0000  10.2500 Du        
  12035 ****       229.5000  20.0000  10.5000 Du        
  12036 ****       229.5000  20.0000  10.7500 Du        
  12037 ****       229.5000  20.0000  11.0000 Du        
  12038 ****       229.5000  20.0000  11.2500 Du        
  12039 ****       229.5000  20.0000  11.5000 Du        
  12040 ****       229.5000  20.0000  11.7500 Du        
  12041 ****       229.5000  20.0000  12.0000 Du        
  12042 ****       229.5000  20.0000  12.2500 Du        
  12043 ****       229.5000  20.0000  12.5000 Du        
  12044 ****       229.5000  20.0000  12.7500 Du        
  12045 ****       229.5000  20.0000  13.0000 Du        
  12046 ****       229.5000  20.2500   9.7500 Du        
  12047 ****       229.5000  20.2500  10.0000 Du        
  12048 ****       229.5000  20.2500  10.2500 Du        
  12049 ****       229.5000  20.2500  10.5000 Du        
  12050 ****       229.5000  20.2500  10.7500 Du        
  12051 ****       229.5000  20.2500  11.0000 Du        
  12052 ****       229.5000  20.2500  11.2500 Du        
  12053 ****       229.5000  20.2500  11.5000 Du        
  12054 ****       229.5000  20.2500  11.7500 Du        
  12055 ****       229.5000  20.2500  12.0000 Du        
  12056 ****       229.5000  20.2500  12.2500 Du        
  12057 ****       229.5000  20.2500  12.5000 Du        
  12058 ****       229.5000  20.2500  12.7500 Du        
  12059 ****       229.5000  20.2500  13.0000 Du        
  12060 ****       229.5000  20.5000  10.2500 Du        
  12061 ****       229.5000  20.5000  10.5000 Du        
  12062 ****       229.5000  20.5000  10.7500 Du        
  12063 ****       229.5000  20.5000  11.0000 Du        
  12064 ****       229.5000  20.5000  11.2500 Du        
  12065 ****       229.5000  20.5000  11.5000 Du        
  12066 ****       229.5000  20.5000  11.7500 Du        
  12067 ****       229.5000  20.5000  12.0000 Du        
  12068 ****       229.5000  20.5000  12.2500 Du        
  12069 ****       229.5000  20.5000  12.5000 Du        
  12070 ****       229.5000  20.5000  12.7500 Du        
  12071 ****       229.5000  20.5000  13.0000 Du        
  12072 ****       229.5000  20.7500  10.5000 Du        
  12073 ****       229.5000  20.7500  10.7500 Du        
  12074 ****       229.5000  20.7500  11.0000 Du        
  12075 ****       229.5000  20.7500  11.2500 Du        
  12076 ****       229.5000  20.7500  11.5000 Du        
  12077 ****       229.5000  20.7500  11.7500 Du        
  12078 ****       229.5000  20.7500  12.0000 Du        
  12079 ****       229.5000  20.7500  12.2500 Du        
  12080 ****       229.5000  20.7500  12.5000 Du        
  12081 ****       229.5000  20.7500  12.7500 Du        
  12082 ****       229.5000  20.7500  13.0000 Du        
  12083 ****       229.5000  21.0000  10.7500 Du        
  12084 ****       229.5000  21.0000  11.0000 Du        
  12085 ****       229.5000  21.0000  11.2500 Du        
  12086 ****       229.5000  21.0000  11.5000 Du        
  12087 ****       229.5000  21.0000  11.7500 Du        
  12088 ****       229.5000  21.0000  12.0000 Du        
  12089 ****       229.5000  21.0000  12.2500 Du        
  12090 ****       229.5000  21.0000  12.5000 Du        
  12091 ****       229.5000  21.0000  12.7500 Du        
  12092 ****       229.5000  21.0000  13.0000 Du        
  12093 ****       229.5000  21.2500  11.0000 Du        
  12094 ****       229.5000  21.2500  11.2500 Du        
  12095 ****       229.5000  21.2500  11.5000 Du        
  12096 ****       229.5000  21.2500  11.7500 Du        
  12097 ****       229.5000  21.2500  12.0000 Du        
  12098 ****       229.5000  21.2500  12.2500 Du        
  12099 ****       229.5000  21.2500  12.5000 Du        
  12100 ****       229.5000  21.2500  12.7500 Du        
  12101 ****       229.5000  21.2500  13.0000 Du        
  12102 ****       229.5000  21.5000  11.0000 Du        
  12103 ****       229.5000  21.5000  11.2500 Du        
  12104 ****       229.5000  21.5000  11.5000 Du        
  12105 ****       229.5000  21.5000  11.7500 Du        
  12106 ****       229.5000  21.5000  12.0000 Du        
  12107 ****       229.5000  21.5000  12.2500 Du        
  12108 ****       229.5000  21.5000  12.5000 Du        
  12109 ****       229.5000  21.5000  12.7500 Du        
  12110 ****       229.5000  21.7500  11.2500 Du        
  12111 ****       229.5000  21.7500  11.5000 Du        
  12112 ****       229.5000  21.7500  11.7500 Du        
  12113 ****       229.5000  21.7500  12.0000 Du        
  12114 ****       229.5000  21.7500  12.2500 Du        
  12115 ****       229.5000  21.7500  12.5000 Du        
  12116 ****       229.5000  22.0000  11.2500 Du        
  12117 ****       229.5000  22.0000  11.5000 Du        
  12118 ****       229.5000  22.0000  11.7500 Du        
  12119 ****       229.5000  22.0000  12.0000 Du        
  12120 ****       229.5000  22.0000  12.2500 Du        
  12121 ****       229.5000  22.2500  11.5000 Du        
  12122 ****       229.5000  22.2500  11.7500 Du        
  12123 ****       229.5000  22.5000  11.7500 Du        
  12124 ****       229.5000  22.7500  11.5000 Du        
  12125 ****       229.5000  24.7500  12.7500 Du        
  12126 ****       229.5000  24.7500  13.0000 Du        
  12127 ****       229.5000  24.7500  13.5000 Du        
  12128 ****       229.5000  24.7500  13.7500 Du        
  12129 ****       229.5000  24.7500  14.0000 Du        
  12130 ****       229.5000  25.0000  12.5000 Du        
  12131 ****       229.5000  25.0000  12.7500 Du        
  12132 ****       229.5000  25.0000  13.0000 Du        
  12133 ****       229.5000  25.0000  13.2500 Du        
  12134 ****       229.5000  25.0000  13.5000 Du        
  12135 ****       229.5000  25.0000  13.7500 Du        
  12136 ****       229.5000  25.0000  14.0000 Du        
  12137 ****       229.5000  25.0000  14.2500 Du        
  12138 ****       229.5000  25.2500  12.5000 Du        
  12139 ****       229.5000  25.2500  12.7500 Du        
  12140 ****       229.5000  25.2500  13.0000 Du        
  12141 ****       229.5000  25.2500  13.2500 Du        
  12142 ****       229.5000  25.2500  13.5000 Du        
  12143 ****       229.5000  25.2500  13.7500 Du        
  12144 ****       229.5000  25.2500  14.0000 Du        
  12145 ****       229.5000  25.2500  14.2500 Du        
  12146 ****       229.5000  25.2500  14.5000 Du        
  12147 ****       229.5000  25.5000  12.5000 Du        
  12148 ****       229.5000  25.5000  12.7500 Du        
  12149 ****       229.5000  25.5000  13.0000 Du        
  12150 ****       229.5000  25.5000  13.2500 Du        
  12151 ****       229.5000  25.5000  13.5000 Du        
  12152 ****       229.5000  25.5000  13.7500 Du        
  12153 ****       229.5000  25.5000  14.0000 Du        
  12154 ****       229.5000  25.5000  14.2500 Du        
  12155 ****       229.5000  25.5000  14.5000 Du        
  12156 ****       229.5000  25.7500  12.5000 Du        
  12157 ****       229.5000  25.7500  12.7500 Du        
  12158 ****       229.5000  25.7500  13.0000 Du        
  12159 ****       229.5000  25.7500  13.2500 Du        
  12160 ****       229.5000  25.7500  13.5000 Du        
  12161 ****       229.5000  25.7500  13.7500 Du        
  12162 ****       229.5000  25.7500  14.0000 Du        
  12163 ****       229.5000  25.7500  14.2500 Du        
  12164 ****       229.5000  25.7500  14.5000 Du        
  12165 ****       229.5000  26.0000  12.7500 Du        
  12166 ****       229.5000  26.0000  13.0000 Du        
  12167 ****       229.5000  26.0000  13.2500 Du        
  12168 ****       229.5000  26.0000  13.5000 Du        
  12169 ****       229.5000  26.0000  13.7500 Du        
  12170 ****       229.5000  26.0000  14.0000 Du        
  12171 ****       229.5000  26.0000  14.2500 Du        
  12172 ****       229.5000  26.0000  14.5000 Du        
  12173 ****       229.5000  26.2500  12.7500 Du        
  12174 ****       229.5000  26.2500  13.0000 Du        
  12175 ****       229.5000  26.2500  13.2500 Du        
  12176 ****       229.5000  26.2500  13.5000 Du        
  12177 ****       229.5000  26.2500  13.7500 Du        
  12178 ****       229.5000  26.2500  14.0000 Du        
  12179 ****       229.5000  26.2500  14.2500 Du        
  12180 ****       229.5000  26.2500  14.5000 Du        
  12181 ****       229.5000  26.5000  12.5000 Du        
  12182 ****       229.5000  26.5000  12.7500 Du        
  12183 ****       229.5000  26.5000  13.0000 Du        
  12184 ****       229.5000  26.5000  13.2500 Du        
  12185 ****       229.5000  26.5000  13.5000 Du        
  12186 ****       229.5000  26.5000  13.7500 Du        
  12187 ****       229.5000  26.5000  14.0000 Du        
  12188 ****       229.5000  26.5000  14.2500 Du        
  12189 ****       229.5000  26.5000  14.5000 Du        
  12190 ****       229.5000  26.7500  12.5000 Du        
  12191 ****       229.5000  26.7500  12.7500 Du        
  12192 ****       229.5000  26.7500  13.0000 Du        
  12193 ****       229.5000  26.7500  13.2500 Du        
  12194 ****       229.5000  26.7500  13.5000 Du        
  12195 ****       229.5000  26.7500  13.7500 Du        
  12196 ****       229.5000  26.7500  14.0000 Du        
  12197 ****       229.5000  26.7500  14.2500 Du        
  12198 ****       229.5000  26.7500  14.5000 Du        
  12199 ****       229.5000  27.0000  12.5000 Du        
  12200 ****       229.5000  27.0000  12.7500 Du        
  12201 ****       229.5000  27.0000  13.0000 Du        
  12202 ****       229.5000  27.0000  13.2500 Du        
  12203 ****       229.5000  27.0000  13.5000 Du        
  12204 ****       229.5000  27.0000  13.7500 Du        
  12205 ****       229.5000  27.0000  14.0000 Du        
  12206 ****       229.5000  27.0000  14.2500 Du        
  12207 ****       229.5000  27.0000  14.5000 Du        
  12208 ****       229.5000  27.2500  12.5000 Du        
  12209 ****       229.5000  27.2500  12.7500 Du        
  12210 ****       229.5000  27.2500  13.0000 Du        
  12211 ****       229.5000  27.2500  13.2500 Du        
  12212 ****       229.5000  27.2500  13.5000 Du        
  12213 ****       229.5000  27.2500  13.7500 Du        
  12214 ****       229.5000  27.2500  14.0000 Du        
  12215 ****       229.5000  27.2500  14.2500 Du        
  12216 ****       229.5000  27.2500  14.5000 Du        
  12217 ****       229.5000  27.5000  12.2500 Du        
  12218 ****       229.5000  27.5000  12.5000 Du        
  12219 ****       229.5000  27.5000  12.7500 Du        
  12220 ****       229.5000  27.5000  13.0000 Du        
  12221 ****       229.5000  27.5000  13.2500 Du        
  12222 ****       229.5000  27.5000  13.5000 Du        
  12223 ****       229.5000  27.5000  13.7500 Du        
  12224 ****       229.5000  27.5000  14.0000 Du        
  12225 ****       229.5000  27.5000  14.2500 Du        
  12226 ****       229.5000  27.7500  12.2500 Du        
  12227 ****       229.5000  27.7500  12.5000 Du        
  12228 ****       229.5000  27.7500  12.7500 Du        
  12229 ****       229.5000  27.7500  13.0000 Du        
  12230 ****       229.5000  27.7500  13.2500 Du        
  12231 ****       229.5000  27.7500  13.5000 Du        
  12232 ****       229.5000  27.7500  13.7500 Du        
  12233 ****       229.5000  27.7500  14.0000 Du        
  12234 ****       229.5000  27.7500  14.2500 Du        
  12235 ****       229.5000  28.0000  12.2500 Du        
  12236 ****       229.5000  28.0000  12.5000 Du        
  12237 ****       229.5000  28.0000  12.7500 Du        
  12238 ****       229.5000  28.0000  13.0000 Du        
  12239 ****       229.5000  28.0000  13.2500 Du        
  12240 ****       229.5000  28.0000  13.5000 Du        
  12241 ****       229.5000  28.0000  13.7500 Du        
  12242 ****       229.5000  28.0000  14.0000 Du        
  12243 ****       229.5000  28.2500  12.5000 Du        
  12244 ****       229.5000  28.2500  12.7500 Du        
  12245 ****       229.5000  28.2500  13.0000 Du        
  12246 ****       229.5000  28.2500  13.2500 Du        
  12247 ****       229.5000  28.2500  13.5000 Du        
  12248 ****       229.5000  28.2500  13.7500 Du        
  12249 ****       229.5000  28.5000  12.7500 Du        
  12250 ****       229.5000  28.5000  13.0000 Du        
  12251 ****       229.5000  28.5000  13.2500 Du        
  12252 ****       229.5000  28.5000  13.5000 Du        
  12253 ****       229.5000  28.7500  13.0000 Du        
  12254 ****       229.7500  15.0000  13.7500 Du        
  12255 ****       229.7500  15.0000  14.0000 Du        
  12256 ****       229.7500  15.2500  13.7500 Du        
  12257 ****       229.7500  15.2500  14.0000 Du        
  12258 ****       229.7500  15.2500  14.2500 Du        
  12259 ****       229.7500  15.5000  13.7500 Du        
  12260 ****       229.7500  15.5000  14.0000 Du        
  12261 ****       229.7500  15.5000  14.2500 Du        
  12262 ****       229.7500  15.7500  13.5000 Du        
  12263 ****       229.7500  15.7500  13.7500 Du        
  12264 ****       229.7500  15.7500  14.0000 Du        
  12265 ****       229.7500  15.7500  14.2500 Du        
  12266 ****       229.7500  15.7500  14.5000 Du        
  12267 ****       229.7500  16.0000  13.5000 Du        
  12268 ****       229.7500  16.0000  13.7500 Du        
  12269 ****       229.7500  16.0000  14.0000 Du        
  12270 ****       229.7500  16.0000  14.2500 Du        
  12271 ****       229.7500  16.0000  14.5000 Du        
  12272 ****       229.7500  16.0000  14.7500 Du        
  12273 ****       229.7500  16.2500  13.5000 Du        
  12274 ****       229.7500  16.2500  13.7500 Du        
  12275 ****       229.7500  16.2500  14.0000 Du        
  12276 ****       229.7500  16.2500  14.2500 Du        
  12277 ****       229.7500  16.2500  14.5000 Du        
  12278 ****       229.7500  16.2500  14.7500 Du        
  12279 ****       229.7500  16.2500  15.0000 Du        
  12280 ****       229.7500  16.5000  13.2500 Du        
  12281 ****       229.7500  16.5000  13.5000 Du        
  12282 ****       229.7500  16.5000  13.7500 Du        
  12283 ****       229.7500  16.5000  14.0000 Du        
  12284 ****       229.7500  16.5000  14.2500 Du        
  12285 ****       229.7500  16.5000  14.5000 Du        
  12286 ****       229.7500  16.5000  14.7500 Du        
  12287 ****       229.7500  16.5000  15.0000 Du        
  12288 ****       229.7500  16.7500  13.2500 Du        
  12289 ****       229.7500  16.7500  13.5000 Du        
  12290 ****       229.7500  16.7500  13.7500 Du        
  12291 ****       229.7500  16.7500  14.0000 Du        
  12292 ****       229.7500  16.7500  14.2500 Du        
  12293 ****       229.7500  16.7500  14.5000 Du        
  12294 ****       229.7500  16.7500  14.7500 Du        
  12295 ****       229.7500  16.7500  15.0000 Du        
  12296 ****       229.7500  16.7500  15.2500 Du        
  12297 ****       229.7500  17.0000  13.0000 Du        
  12298 ****       229.7500  17.0000  13.2500 Du        
  12299 ****       229.7500  17.0000  13.5000 Du        
  12300 ****       229.7500  17.0000  13.7500 Du        
  12301 ****       229.7500  17.0000  14.0000 Du        
  12302 ****       229.7500  17.0000  14.2500 Du        
  12303 ****       229.7500  17.0000  14.5000 Du        
  12304 ****       229.7500  17.0000  14.7500 Du        
  12305 ****       229.7500  17.0000  15.0000 Du        
  12306 ****       229.7500  17.0000  15.2500 Du        
  12307 ****       229.7500  17.2500  13.0000 Du        
  12308 ****       229.7500  17.2500  13.2500 Du        
  12309 ****       229.7500  17.2500  13.5000 Du        
  12310 ****       229.7500  17.2500  13.7500 Du        
  12311 ****       229.7500  17.2500  14.0000 Du        
  12312 ****       229.7500  17.2500  14.2500 Du        
  12313 ****       229.7500  17.2500  14.5000 Du        
  12314 ****       229.7500  17.2500  14.7500 Du        
  12315 ****       229.7500  17.2500  15.0000 Du        
  12316 ****       229.7500  17.2500  15.2500 Du        
  12317 ****       229.7500  17.5000  13.0000 Du        
  12318 ****       229.7500  17.5000  13.2500 Du        
  12319 ****       229.7500  17.5000  13.5000 Du        
  12320 ****       229.7500  17.5000  13.7500 Du        
  12321 ****       229.7500  17.5000  14.0000 Du        
  12322 ****       229.7500  17.5000  14.2500 Du        
  12323 ****       229.7500  17.5000  14.5000 Du        
  12324 ****       229.7500  17.5000  14.7500 Du        
  12325 ****       229.7500  17.5000  15.0000 Du        
  12326 ****       229.7500  17.7500  12.7500 Du        
  12327 ****       229.7500  17.7500  13.0000 Du        
  12328 ****       229.7500  17.7500  13.2500 Du        
  12329 ****       229.7500  17.7500  13.5000 Du        
  12330 ****       229.7500  17.7500  13.7500 Du        
  12331 ****       229.7500  17.7500  14.0000 Du        
  12332 ****       229.7500  17.7500  14.2500 Du        
  12333 ****       229.7500  17.7500  14.5000 Du        
  12334 ****       229.7500  18.0000  12.5000 Du        
  12335 ****       229.7500  18.0000  12.7500 Du        
  12336 ****       229.7500  18.0000  13.0000 Du        
  12337 ****       229.7500  18.0000  13.2500 Du        
  12338 ****       229.7500  18.0000  13.5000 Du        
  12339 ****       229.7500  18.0000  13.7500 Du        
  12340 ****       229.7500  18.0000  14.0000 Du        
  12341 ****       229.7500  18.0000  14.2500 Du        
  12342 ****       229.7500  18.2500  12.2500 Du        
  12343 ****       229.7500  18.2500  12.5000 Du        
  12344 ****       229.7500  18.2500  12.7500 Du        
  12345 ****       229.7500  18.2500  13.0000 Du        
  12346 ****       229.7500  18.2500  13.2500 Du        
  12347 ****       229.7500  18.2500  13.5000 Du        
  12348 ****       229.7500  18.2500  13.7500 Du        
  12349 ****       229.7500  18.2500  14.0000 Du        
  12350 ****       229.7500  18.5000  12.0000 Du        
  12351 ****       229.7500  18.5000  12.2500 Du        
  12352 ****       229.7500  18.5000  12.5000 Du        
  12353 ****       229.7500  18.5000  12.7500 Du        
  12354 ****       229.7500  18.5000  13.0000 Du        
  12355 ****       229.7500  18.5000  13.2500 Du        
  12356 ****       229.7500  18.5000  13.5000 Du        
  12357 ****       229.7500  18.5000  13.7500 Du        
  12358 ****       229.7500  18.7500  11.7500 Du        
  12359 ****       229.7500  18.7500  12.0000 Du        
  12360 ****       229.7500  18.7500  12.2500 Du        
  12361 ****       229.7500  18.7500  12.5000 Du        
  12362 ****       229.7500  18.7500  12.7500 Du        
  12363 ****       229.7500  18.7500  13.0000 Du        
  12364 ****       229.7500  18.7500  13.2500 Du        
  12365 ****       229.7500  18.7500  13.5000 Du        
  12366 ****       229.7500  19.0000  11.2500 Du        
  12367 ****       229.7500  19.0000  11.5000 Du        
  12368 ****       229.7500  19.0000  11.7500 Du        
  12369 ****       229.7500  19.0000  12.0000 Du        
  12370 ****       229.7500  19.0000  12.2500 Du        
  12371 ****       229.7500  19.0000  12.5000 Du        
  12372 ****       229.7500  19.0000  12.7500 Du        
  12373 ****       229.7500  19.0000  13.0000 Du        
  12374 ****       229.7500  19.0000  13.2500 Du        
  12375 ****       229.7500  19.2500  10.7500 Du        
  12376 ****       229.7500  19.2500  11.0000 Du        
  12377 ****       229.7500  19.2500  11.2500 Du        
  12378 ****       229.7500  19.2500  11.5000 Du        
  12379 ****       229.7500  19.2500  11.7500 Du        
  12380 ****       229.7500  19.2500  12.0000 Du        
  12381 ****       229.7500  19.2500  12.2500 Du        
  12382 ****       229.7500  19.2500  12.5000 Du        
  12383 ****       229.7500  19.2500  12.7500 Du        
  12384 ****       229.7500  19.2500  13.0000 Du        
  12385 ****       229.7500  19.2500  13.2500 Du        
  12386 ****       229.7500  19.5000   9.7500 Du        
  12387 ****       229.7500  19.5000  10.0000 Du        
  12388 ****       229.7500  19.5000  10.2500 Du        
  12389 ****       229.7500  19.5000  10.5000 Du        
  12390 ****       229.7500  19.5000  10.7500 Du        
  12391 ****       229.7500  19.5000  11.0000 Du        
  12392 ****       229.7500  19.5000  11.2500 Du        
  12393 ****       229.7500  19.5000  11.5000 Du        
  12394 ****       229.7500  19.5000  11.7500 Du        
  12395 ****       229.7500  19.5000  12.0000 Du        
  12396 ****       229.7500  19.5000  12.2500 Du        
  12397 ****       229.7500  19.5000  12.5000 Du        
  12398 ****       229.7500  19.5000  12.7500 Du        
  12399 ****       229.7500  19.5000  13.0000 Du        
  12400 ****       229.7500  19.7500   9.2500 Du        
  12401 ****       229.7500  19.7500   9.5000 Du        
  12402 ****       229.7500  19.7500   9.7500 Du        
  12403 ****       229.7500  19.7500  10.0000 Du        
  12404 ****       229.7500  19.7500  10.2500 Du        
  12405 ****       229.7500  19.7500  10.5000 Du        
  12406 ****       229.7500  19.7500  10.7500 Du        
  12407 ****       229.7500  19.7500  11.0000 Du        
  12408 ****       229.7500  19.7500  11.2500 Du        
  12409 ****       229.7500  19.7500  11.5000 Du        
  12410 ****       229.7500  19.7500  11.7500 Du        
  12411 ****       229.7500  19.7500  12.0000 Du        
  12412 ****       229.7500  19.7500  12.2500 Du        
  12413 ****       229.7500  19.7500  12.5000 Du        
  12414 ****       229.7500  19.7500  12.7500 Du        
  12415 ****       229.7500  19.7500  13.0000 Du        
  12416 ****       229.7500  20.0000   9.2500 Du        
  12417 ****       229.7500  20.0000   9.5000 Du        
  12418 ****       229.7500  20.0000   9.7500 Du        
  12419 ****       229.7500  20.0000  10.0000 Du        
  12420 ****       229.7500  20.0000  10.2500 Du        
  12421 ****       229.7500  20.0000  10.5000 Du        
  12422 ****       229.7500  20.0000  10.7500 Du        
  12423 ****       229.7500  20.0000  11.0000 Du        
  12424 ****       229.7500  20.0000  11.2500 Du        
  12425 ****       229.7500  20.0000  11.5000 Du        
  12426 ****       229.7500  20.0000  11.7500 Du        
  12427 ****       229.7500  20.0000  12.0000 Du        
  12428 ****       229.7500  20.0000  12.2500 Du        
  12429 ****       229.7500  20.0000  12.5000 Du        
  12430 ****       229.7500  20.0000  12.7500 Du        
  12431 ****       229.7500  20.0000  13.0000 Du        
  12432 ****       229.7500  20.2500   9.7500 Du        
  12433 ****       229.7500  20.2500  10.0000 Du        
  12434 ****       229.7500  20.2500  10.2500 Du        
  12435 ****       229.7500  20.2500  10.5000 Du        
  12436 ****       229.7500  20.2500  10.7500 Du        
  12437 ****       229.7500  20.2500  11.0000 Du        
  12438 ****       229.7500  20.2500  11.2500 Du        
  12439 ****       229.7500  20.2500  11.5000 Du        
  12440 ****       229.7500  20.2500  11.7500 Du        
  12441 ****       229.7500  20.2500  12.0000 Du        
  12442 ****       229.7500  20.2500  12.2500 Du        
  12443 ****       229.7500  20.2500  12.5000 Du        
  12444 ****       229.7500  20.2500  12.7500 Du        
  12445 ****       229.7500  20.2500  13.0000 Du        
  12446 ****       229.7500  20.5000  10.0000 Du        
  12447 ****       229.7500  20.5000  10.2500 Du        
  12448 ****       229.7500  20.5000  10.5000 Du        
  12449 ****       229.7500  20.5000  10.7500 Du        
  12450 ****       229.7500  20.5000  11.0000 Du        
  12451 ****       229.7500  20.5000  11.2500 Du        
  12452 ****       229.7500  20.5000  11.5000 Du        
  12453 ****       229.7500  20.5000  11.7500 Du        
  12454 ****       229.7500  20.5000  12.0000 Du        
  12455 ****       229.7500  20.5000  12.2500 Du        
  12456 ****       229.7500  20.5000  12.5000 Du        
  12457 ****       229.7500  20.5000  12.7500 Du        
  12458 ****       229.7500  20.5000  13.0000 Du        
  12459 ****       229.7500  20.7500  10.5000 Du        
  12460 ****       229.7500  20.7500  10.7500 Du        
  12461 ****       229.7500  20.7500  11.0000 Du        
  12462 ****       229.7500  20.7500  11.2500 Du        
  12463 ****       229.7500  20.7500  11.5000 Du        
  12464 ****       229.7500  20.7500  11.7500 Du        
  12465 ****       229.7500  20.7500  12.0000 Du        
  12466 ****       229.7500  20.7500  12.2500 Du        
  12467 ****       229.7500  20.7500  12.5000 Du        
  12468 ****       229.7500  20.7500  12.7500 Du        
  12469 ****       229.7500  20.7500  13.0000 Du        
  12470 ****       229.7500  21.0000  10.7500 Du        
  12471 ****       229.7500  21.0000  11.0000 Du        
  12472 ****       229.7500  21.0000  11.2500 Du        
  12473 ****       229.7500  21.0000  11.5000 Du        
  12474 ****       229.7500  21.0000  11.7500 Du        
  12475 ****       229.7500  21.0000  12.0000 Du        
  12476 ****       229.7500  21.0000  12.2500 Du        
  12477 ****       229.7500  21.0000  12.5000 Du        
  12478 ****       229.7500  21.0000  12.7500 Du        
  12479 ****       229.7500  21.0000  13.0000 Du        
  12480 ****       229.7500  21.2500  11.0000 Du        
  12481 ****       229.7500  21.2500  11.2500 Du        
  12482 ****       229.7500  21.2500  11.5000 Du        
  12483 ****       229.7500  21.2500  11.7500 Du        
  12484 ****       229.7500  21.2500  12.0000 Du        
  12485 ****       229.7500  21.2500  12.2500 Du        
  12486 ****       229.7500  21.2500  12.5000 Du        
  12487 ****       229.7500  21.2500  12.7500 Du        
  12488 ****       229.7500  21.5000  11.2500 Du        
  12489 ****       229.7500  21.5000  11.5000 Du        
  12490 ****       229.7500  21.5000  11.7500 Du        
  12491 ****       229.7500  21.5000  12.0000 Du        
  12492 ****       229.7500  21.5000  12.2500 Du        
  12493 ****       229.7500  21.7500  11.7500 Du        
  12494 ****       229.7500  21.7500  12.0000 Du        
  12495 ****       229.7500  25.0000  13.7500 Du        
  12496 ****       229.7500  25.0000  14.0000 Du        
  12497 ****       229.7500  25.0000  14.2500 Du        
  12498 ****       229.7500  25.2500  12.7500 Du        
  12499 ****       229.7500  25.2500  13.0000 Du        
  12500 ****       229.7500  25.2500  13.2500 Du        
  12501 ****       229.7500  25.2500  13.5000 Du        
  12502 ****       229.7500  25.2500  13.7500 Du        
  12503 ****       229.7500  25.2500  14.0000 Du        
  12504 ****       229.7500  25.2500  14.2500 Du        
  12505 ****       229.7500  25.5000  12.5000 Du        
  12506 ****       229.7500  25.5000  12.7500 Du        
  12507 ****       229.7500  25.5000  13.0000 Du        
  12508 ****       229.7500  25.5000  13.2500 Du        
  12509 ****       229.7500  25.5000  13.5000 Du        
  12510 ****       229.7500  25.5000  13.7500 Du        
  12511 ****       229.7500  25.5000  14.0000 Du        
  12512 ****       229.7500  25.5000  14.2500 Du        
  12513 ****       229.7500  25.7500  12.5000 Du        
  12514 ****       229.7500  25.7500  12.7500 Du        
  12515 ****       229.7500  25.7500  13.0000 Du        
  12516 ****       229.7500  25.7500  13.2500 Du        
  12517 ****       229.7500  25.7500  13.5000 Du        
  12518 ****       229.7500  25.7500  13.7500 Du        
  12519 ****       229.7500  25.7500  14.0000 Du        
  12520 ****       229.7500  25.7500  14.2500 Du        
  12521 ****       229.7500  25.7500  14.5000 Du        
  12522 ****       229.7500  26.0000  12.7500 Du        
  12523 ****       229.7500  26.0000  13.0000 Du        
  12524 ****       229.7500  26.0000  13.2500 Du        
  12525 ****       229.7500  26.0000  13.5000 Du        
  12526 ****       229.7500  26.0000  13.7500 Du        
  12527 ****       229.7500  26.0000  14.0000 Du        
  12528 ****       229.7500  26.0000  14.2500 Du        
  12529 ****       229.7500  26.0000  14.5000 Du        
  12530 ****       229.7500  26.2500  12.7500 Du        
  12531 ****       229.7500  26.2500  13.0000 Du        
  12532 ****       229.7500  26.2500  13.2500 Du        
  12533 ****       229.7500  26.2500  13.5000 Du        
  12534 ****       229.7500  26.2500  13.7500 Du        
  12535 ****       229.7500  26.2500  14.0000 Du        
  12536 ****       229.7500  26.2500  14.2500 Du        
  12537 ****       229.7500  26.2500  14.5000 Du        
  12538 ****       229.7500  26.5000  12.5000 Du        
  12539 ****       229.7500  26.5000  12.7500 Du        
  12540 ****       229.7500  26.5000  13.0000 Du        
  12541 ****       229.7500  26.5000  13.2500 Du        
  12542 ****       229.7500  26.5000  13.5000 Du        
  12543 ****       229.7500  26.5000  13.7500 Du        
  12544 ****       229.7500  26.5000  14.0000 Du        
  12545 ****       229.7500  26.5000  14.2500 Du        
  12546 ****       229.7500  26.5000  14.5000 Du        
  12547 ****       229.7500  26.7500  12.5000 Du        
  12548 ****       229.7500  26.7500  12.7500 Du        
  12549 ****       229.7500  26.7500  13.0000 Du        
  12550 ****       229.7500  26.7500  13.2500 Du        
  12551 ****       229.7500  26.7500  13.5000 Du        
  12552 ****       229.7500  26.7500  13.7500 Du        
  12553 ****       229.7500  26.7500  14.0000 Du        
  12554 ****       229.7500  26.7500  14.2500 Du        
  12555 ****       229.7500  26.7500  14.5000 Du        
  12556 ****       229.7500  27.0000  12.5000 Du        
  12557 ****       229.7500  27.0000  12.7500 Du        
  12558 ****       229.7500  27.0000  13.0000 Du        
  12559 ****       229.7500  27.0000  13.2500 Du        
  12560 ****       229.7500  27.0000  13.5000 Du        
  12561 ****       229.7500  27.0000  13.7500 Du        
  12562 ****       229.7500  27.0000  14.0000 Du        
  12563 ****       229.7500  27.0000  14.2500 Du        
  12564 ****       229.7500  27.0000  14.5000 Du        
  12565 ****       229.7500  27.2500  12.5000 Du        
  12566 ****       229.7500  27.2500  12.7500 Du        
  12567 ****       229.7500  27.2500  13.0000 Du        
  12568 ****       229.7500  27.2500  13.2500 Du        
  12569 ****       229.7500  27.2500  13.5000 Du        
  12570 ****       229.7500  27.2500  13.7500 Du        
  12571 ****       229.7500  27.2500  14.0000 Du        
  12572 ****       229.7500  27.2500  14.2500 Du        
  12573 ****       229.7500  27.5000  12.2500 Du        
  12574 ****       229.7500  27.5000  12.5000 Du        
  12575 ****       229.7500  27.5000  12.7500 Du        
  12576 ****       229.7500  27.5000  13.0000 Du        
  12577 ****       229.7500  27.5000  13.2500 Du        
  12578 ****       229.7500  27.5000  13.5000 Du        
  12579 ****       229.7500  27.5000  13.7500 Du        
  12580 ****       229.7500  27.5000  14.0000 Du        
  12581 ****       229.7500  27.7500  12.2500 Du        
  12582 ****       229.7500  27.7500  12.5000 Du        
  12583 ****       229.7500  27.7500  12.7500 Du        
  12584 ****       229.7500  27.7500  13.0000 Du        
  12585 ****       229.7500  27.7500  13.2500 Du        
  12586 ****       229.7500  27.7500  13.5000 Du        
  12587 ****       229.7500  27.7500  13.7500 Du        
  12588 ****       229.7500  27.7500  14.0000 Du        
  12589 ****       229.7500  28.0000  12.2500 Du        
  12590 ****       229.7500  28.0000  12.5000 Du        
  12591 ****       229.7500  28.0000  12.7500 Du        
  12592 ****       229.7500  28.0000  13.0000 Du        
  12593 ****       229.7500  28.0000  13.2500 Du        
  12594 ****       229.7500  28.0000  13.5000 Du        
  12595 ****       229.7500  28.0000  13.7500 Du        
  12596 ****       229.7500  28.2500  12.5000 Du        
  12597 ****       229.7500  28.2500  12.7500 Du        
  12598 ****       229.7500  28.2500  13.0000 Du        
  12599 ****       229.7500  28.2500  13.2500 Du        
  12600 ****       229.7500  28.2500  13.5000 Du        
  12601 ****       229.7500  28.5000  12.7500 Du        
  12602 ****       229.7500  28.5000  13.0000 Du        
  12603 ****       229.7500  28.5000  13.2500 Du        
  12604 ****       229.7500  28.7500  13.0000 Du        
  12605 ****       230.0000  15.0000  13.7500 Du        
  12606 ****       230.0000  15.0000  14.0000 Du        
  12607 ****       230.0000  15.2500  13.7500 Du        
  12608 ****       230.0000  15.2500  14.0000 Du        
  12609 ****       230.0000  15.5000  13.7500 Du        
  12610 ****       230.0000  15.5000  14.0000 Du        
  12611 ****       230.0000  15.5000  14.2500 Du        
  12612 ****       230.0000  15.7500  13.5000 Du        
  12613 ****       230.0000  15.7500  13.7500 Du        
  12614 ****       230.0000  15.7500  14.0000 Du        
  12615 ****       230.0000  15.7500  14.2500 Du        
  12616 ****       230.0000  16.0000  13.5000 Du        
  12617 ****       230.0000  16.0000  13.7500 Du        
  12618 ****       230.0000  16.0000  14.0000 Du        
  12619 ****       230.0000  16.0000  14.2500 Du        
  12620 ****       230.0000  16.0000  14.5000 Du        
  12621 ****       230.0000  16.2500  13.2500 Du        
  12622 ****       230.0000  16.2500  13.5000 Du        
  12623 ****       230.0000  16.2500  13.7500 Du        
  12624 ****       230.0000  16.2500  14.0000 Du        
  12625 ****       230.0000  16.2500  14.2500 Du        
  12626 ****       230.0000  16.2500  14.5000 Du        
  12627 ****       230.0000  16.2500  14.7500 Du        
  12628 ****       230.0000  16.5000  13.2500 Du        
  12629 ****       230.0000  16.5000  13.5000 Du        
  12630 ****       230.0000  16.5000  13.7500 Du        
  12631 ****       230.0000  16.5000  14.0000 Du        
  12632 ****       230.0000  16.5000  14.2500 Du        
  12633 ****       230.0000  16.5000  14.5000 Du        
  12634 ****       230.0000  16.5000  14.7500 Du        
  12635 ****       230.0000  16.5000  15.0000 Du        
  12636 ****       230.0000  16.7500  13.2500 Du        
  12637 ****       230.0000  16.7500  13.5000 Du        
  12638 ****       230.0000  16.7500  13.7500 Du        
  12639 ****       230.0000  16.7500  14.0000 Du        
  12640 ****       230.0000  16.7500  14.2500 Du        
  12641 ****       230.0000  16.7500  14.5000 Du        
  12642 ****       230.0000  16.7500  14.7500 Du        
  12643 ****       230.0000  16.7500  15.0000 Du        
  12644 ****       230.0000  17.0000  13.0000 Du        
  12645 ****       230.0000  17.0000  13.2500 Du        
  12646 ****       230.0000  17.0000  13.5000 Du        
  12647 ****       230.0000  17.0000  13.7500 Du        
  12648 ****       230.0000  17.0000  14.0000 Du        
  12649 ****       230.0000  17.0000  14.2500 Du        
  12650 ****       230.0000  17.0000  14.5000 Du        
  12651 ****       230.0000  17.0000  14.7500 Du        
  12652 ****       230.0000  17.0000  15.0000 Du        
  12653 ****       230.0000  17.0000  15.2500 Du        
  12654 ****       230.0000  17.2500  13.0000 Du        
  12655 ****       230.0000  17.2500  13.2500 Du        
  12656 ****       230.0000  17.2500  13.5000 Du        
  12657 ****       230.0000  17.2500  13.7500 Du        
  12658 ****       230.0000  17.2500  14.0000 Du        
  12659 ****       230.0000  17.2500  14.2500 Du        
  12660 ****       230.0000  17.2500  14.5000 Du        
  12661 ****       230.0000  17.2500  14.7500 Du        
  12662 ****       230.0000  17.2500  15.0000 Du        
  12663 ****       230.0000  17.2500  15.2500 Du        
  12664 ****       230.0000  17.5000  12.7500 Du        
  12665 ****       230.0000  17.5000  13.0000 Du        
  12666 ****       230.0000  17.5000  13.2500 Du        
  12667 ****       230.0000  17.5000  13.5000 Du        
  12668 ****       230.0000  17.5000  13.7500 Du        
  12669 ****       230.0000  17.5000  14.0000 Du        
  12670 ****       230.0000  17.5000  14.2500 Du        
  12671 ****       230.0000  17.5000  14.5000 Du        
  12672 ****       230.0000  17.5000  14.7500 Du        
  12673 ****       230.0000  17.5000  15.0000 Du        
  12674 ****       230.0000  17.7500  12.7500 Du        
  12675 ****       230.0000  17.7500  13.0000 Du        
  12676 ****       230.0000  17.7500  13.2500 Du        
  12677 ****       230.0000  17.7500  13.5000 Du        
  12678 ****       230.0000  17.7500  13.7500 Du        
  12679 ****       230.0000  17.7500  14.0000 Du        
  12680 ****       230.0000  17.7500  14.2500 Du        
  12681 ****       230.0000  17.7500  14.5000 Du        
  12682 ****       230.0000  17.7500  14.7500 Du        
  12683 ****       230.0000  18.0000  12.5000 Du        
  12684 ****       230.0000  18.0000  12.7500 Du        
  12685 ****       230.0000  18.0000  13.0000 Du        
  12686 ****       230.0000  18.0000  13.2500 Du        
  12687 ****       230.0000  18.0000  13.5000 Du        
  12688 ****       230.0000  18.0000  13.7500 Du        
  12689 ****       230.0000  18.0000  14.0000 Du        
  12690 ****       230.0000  18.0000  14.2500 Du        
  12691 ****       230.0000  18.0000  14.5000 Du        
  12692 ****       230.0000  18.2500  12.2500 Du        
  12693 ****       230.0000  18.2500  12.5000 Du        
  12694 ****       230.0000  18.2500  12.7500 Du        
  12695 ****       230.0000  18.2500  13.0000 Du        
  12696 ****       230.0000  18.2500  13.2500 Du        
  12697 ****       230.0000  18.2500  13.5000 Du        
  12698 ****       230.0000  18.2500  13.7500 Du        
  12699 ****       230.0000  18.2500  14.0000 Du        
  12700 ****       230.0000  18.5000  12.0000 Du        
  12701 ****       230.0000  18.5000  12.2500 Du        
  12702 ****       230.0000  18.5000  12.5000 Du        
  12703 ****       230.0000  18.5000  12.7500 Du        
  12704 ****       230.0000  18.5000  13.0000 Du        
  12705 ****       230.0000  18.5000  13.2500 Du        
  12706 ****       230.0000  18.5000  13.5000 Du        
  12707 ****       230.0000  18.5000  13.7500 Du        
  12708 ****       230.0000  18.7500  11.7500 Du        
  12709 ****       230.0000  18.7500  12.0000 Du        
  12710 ****       230.0000  18.7500  12.2500 Du        
  12711 ****       230.0000  18.7500  12.5000 Du        
  12712 ****       230.0000  18.7500  12.7500 Du        
  12713 ****       230.0000  18.7500  13.0000 Du        
  12714 ****       230.0000  18.7500  13.2500 Du        
  12715 ****       230.0000  18.7500  13.5000 Du        
  12716 ****       230.0000  18.7500  13.7500 Du        
  12717 ****       230.0000  19.0000  11.5000 Du        
  12718 ****       230.0000  19.0000  11.7500 Du        
  12719 ****       230.0000  19.0000  12.0000 Du        
  12720 ****       230.0000  19.0000  12.2500 Du        
  12721 ****       230.0000  19.0000  12.5000 Du        
  12722 ****       230.0000  19.0000  12.7500 Du        
  12723 ****       230.0000  19.0000  13.0000 Du        
  12724 ****       230.0000  19.0000  13.2500 Du        
  12725 ****       230.0000  19.0000  13.5000 Du        
  12726 ****       230.0000  19.2500  11.0000 Du        
  12727 ****       230.0000  19.2500  11.2500 Du        
  12728 ****       230.0000  19.2500  11.5000 Du        
  12729 ****       230.0000  19.2500  11.7500 Du        
  12730 ****       230.0000  19.2500  12.0000 Du        
  12731 ****       230.0000  19.2500  12.2500 Du        
  12732 ****       230.0000  19.2500  12.5000 Du        
  12733 ****       230.0000  19.2500  12.7500 Du        
  12734 ****       230.0000  19.2500  13.0000 Du        
  12735 ****       230.0000  19.2500  13.2500 Du        
  12736 ****       230.0000  19.5000  10.5000 Du        
  12737 ****       230.0000  19.5000  10.7500 Du        
  12738 ****       230.0000  19.5000  11.0000 Du        
  12739 ****       230.0000  19.5000  11.2500 Du        
  12740 ****       230.0000  19.5000  11.5000 Du        
  12741 ****       230.0000  19.5000  11.7500 Du        
  12742 ****       230.0000  19.5000  12.0000 Du        
  12743 ****       230.0000  19.5000  12.2500 Du        
  12744 ****       230.0000  19.5000  12.5000 Du        
  12745 ****       230.0000  19.5000  12.7500 Du        
  12746 ****       230.0000  19.5000  13.0000 Du        
  12747 ****       230.0000  19.5000  13.2500 Du        
  12748 ****       230.0000  19.7500   9.7500 Du        
  12749 ****       230.0000  19.7500  10.0000 Du        
  12750 ****       230.0000  19.7500  10.2500 Du        
  12751 ****       230.0000  19.7500  10.5000 Du        
  12752 ****       230.0000  19.7500  10.7500 Du        
  12753 ****       230.0000  19.7500  11.0000 Du        
  12754 ****       230.0000  19.7500  11.2500 Du        
  12755 ****       230.0000  19.7500  11.5000 Du        
  12756 ****       230.0000  19.7500  11.7500 Du        
  12757 ****       230.0000  19.7500  12.0000 Du        
  12758 ****       230.0000  19.7500  12.2500 Du        
  12759 ****       230.0000  19.7500  12.5000 Du        
  12760 ****       230.0000  19.7500  12.7500 Du        
  12761 ****       230.0000  19.7500  13.0000 Du        
  12762 ****       230.0000  19.7500  13.2500 Du        
  12763 ****       230.0000  20.0000   9.5000 Du        
  12764 ****       230.0000  20.0000   9.7500 Du        
  12765 ****       230.0000  20.0000  10.0000 Du        
  12766 ****       230.0000  20.0000  10.2500 Du        
  12767 ****       230.0000  20.0000  10.5000 Du        
  12768 ****       230.0000  20.0000  10.7500 Du        
  12769 ****       230.0000  20.0000  11.0000 Du        
  12770 ****       230.0000  20.0000  11.2500 Du        
  12771 ****       230.0000  20.0000  11.5000 Du        
  12772 ****       230.0000  20.0000  11.7500 Du        
  12773 ****       230.0000  20.0000  12.0000 Du        
  12774 ****       230.0000  20.0000  12.2500 Du        
  12775 ****       230.0000  20.0000  12.5000 Du        
  12776 ****       230.0000  20.0000  12.7500 Du        
  12777 ****       230.0000  20.0000  13.0000 Du        
  12778 ****       230.0000  20.2500   9.7500 Du        
  12779 ****       230.0000  20.2500  10.0000 Du        
  12780 ****       230.0000  20.2500  10.2500 Du        
  12781 ****       230.0000  20.2500  10.5000 Du        
  12782 ****       230.0000  20.2500  10.7500 Du        
  12783 ****       230.0000  20.2500  11.0000 Du        
  12784 ****       230.0000  20.2500  11.2500 Du        
  12785 ****       230.0000  20.2500  11.5000 Du        
  12786 ****       230.0000  20.2500  11.7500 Du        
  12787 ****       230.0000  20.2500  12.0000 Du        
  12788 ****       230.0000  20.2500  12.2500 Du        
  12789 ****       230.0000  20.2500  12.5000 Du        
  12790 ****       230.0000  20.2500  12.7500 Du        
  12791 ****       230.0000  20.2500  13.0000 Du        
  12792 ****       230.0000  20.5000  10.2500 Du        
  12793 ****       230.0000  20.5000  10.5000 Du        
  12794 ****       230.0000  20.5000  10.7500 Du        
  12795 ****       230.0000  20.5000  11.0000 Du        
  12796 ****       230.0000  20.5000  11.2500 Du        
  12797 ****       230.0000  20.5000  11.5000 Du        
  12798 ****       230.0000  20.5000  11.7500 Du        
  12799 ****       230.0000  20.5000  12.0000 Du        
  12800 ****       230.0000  20.5000  12.2500 Du        
  12801 ****       230.0000  20.5000  12.5000 Du        
  12802 ****       230.0000  20.5000  12.7500 Du        
  12803 ****       230.0000  20.5000  13.0000 Du        
  12804 ****       230.0000  20.7500  10.7500 Du        
  12805 ****       230.0000  20.7500  11.0000 Du        
  12806 ****       230.0000  20.7500  11.2500 Du        
  12807 ****       230.0000  20.7500  11.5000 Du        
  12808 ****       230.0000  20.7500  11.7500 Du        
  12809 ****       230.0000  20.7500  12.0000 Du        
  12810 ****       230.0000  20.7500  12.2500 Du        
  12811 ****       230.0000  20.7500  12.5000 Du        
  12812 ****       230.0000  20.7500  12.7500 Du        
  12813 ****       230.0000  20.7500  13.0000 Du        
  12814 ****       230.0000  21.0000  11.0000 Du        
  12815 ****       230.0000  21.0000  11.2500 Du        
  12816 ****       230.0000  21.0000  11.5000 Du        
  12817 ****       230.0000  21.0000  11.7500 Du        
  12818 ****       230.0000  21.0000  12.0000 Du        
  12819 ****       230.0000  21.0000  12.2500 Du        
  12820 ****       230.0000  21.0000  12.5000 Du        
  12821 ****       230.0000  21.0000  12.7500 Du        
  12822 ****       230.0000  21.2500  11.7500 Du        
  12823 ****       230.0000  21.2500  12.0000 Du        
  12824 ****       230.0000  21.2500  12.2500 Du        
  12825 ****       230.0000  25.2500  13.7500 Du        
  12826 ****       230.0000  25.2500  14.0000 Du        
  12827 ****       230.0000  25.2500  14.2500 Du        
  12828 ****       230.0000  25.5000  12.7500 Du        
  12829 ****       230.0000  25.5000  13.0000 Du        
  12830 ****       230.0000  25.5000  13.2500 Du        
  12831 ****       230.0000  25.5000  13.5000 Du        
  12832 ****       230.0000  25.5000  13.7500 Du        
  12833 ****       230.0000  25.5000  14.0000 Du        
  12834 ****       230.0000  25.5000  14.2500 Du        
  12835 ****       230.0000  25.7500  12.5000 Du        
  12836 ****       230.0000  25.7500  12.7500 Du        
  12837 ****       230.0000  25.7500  13.0000 Du        
  12838 ****       230.0000  25.7500  13.2500 Du        
  12839 ****       230.0000  25.7500  13.5000 Du        
  12840 ****       230.0000  25.7500  13.7500 Du        
  12841 ****       230.0000  25.7500  14.0000 Du        
  12842 ****       230.0000  25.7500  14.2500 Du        
  12843 ****       230.0000  26.0000  12.5000 Du        
  12844 ****       230.0000  26.0000  12.7500 Du        
  12845 ****       230.0000  26.0000  13.0000 Du        
  12846 ****       230.0000  26.0000  13.2500 Du        
  12847 ****       230.0000  26.0000  13.5000 Du        
  12848 ****       230.0000  26.0000  13.7500 Du        
  12849 ****       230.0000  26.0000  14.0000 Du        
  12850 ****       230.0000  26.0000  14.2500 Du        
  12851 ****       230.0000  26.2500  12.5000 Du        
  12852 ****       230.0000  26.2500  12.7500 Du        
  12853 ****       230.0000  26.2500  13.0000 Du        
  12854 ****       230.0000  26.2500  13.2500 Du        
  12855 ****       230.0000  26.2500  13.5000 Du        
  12856 ****       230.0000  26.2500  13.7500 Du        
  12857 ****       230.0000  26.2500  14.0000 Du        
  12858 ****       230.0000  26.2500  14.2500 Du        
  12859 ****       230.0000  26.5000  12.5000 Du        
  12860 ****       230.0000  26.5000  12.7500 Du        
  12861 ****       230.0000  26.5000  13.0000 Du        
  12862 ****       230.0000  26.5000  13.2500 Du        
  12863 ****       230.0000  26.5000  13.5000 Du        
  12864 ****       230.0000  26.5000  13.7500 Du        
  12865 ****       230.0000  26.5000  14.0000 Du        
  12866 ****       230.0000  26.5000  14.2500 Du        
  12867 ****       230.0000  26.7500  12.5000 Du        
  12868 ****       230.0000  26.7500  12.7500 Du        
  12869 ****       230.0000  26.7500  13.0000 Du        
  12870 ****       230.0000  26.7500  13.2500 Du        
  12871 ****       230.0000  26.7500  13.5000 Du        
  12872 ****       230.0000  26.7500  13.7500 Du        
  12873 ****       230.0000  26.7500  14.0000 Du        
  12874 ****       230.0000  26.7500  14.2500 Du        
  12875 ****       230.0000  27.0000  12.5000 Du        
  12876 ****       230.0000  27.0000  12.7500 Du        
  12877 ****       230.0000  27.0000  13.0000 Du        
  12878 ****       230.0000  27.0000  13.2500 Du        
  12879 ****       230.0000  27.0000  13.5000 Du        
  12880 ****       230.0000  27.0000  13.7500 Du        
  12881 ****       230.0000  27.0000  14.0000 Du        
  12882 ****       230.0000  27.0000  14.2500 Du        
  12883 ****       230.0000  27.2500  12.5000 Du        
  12884 ****       230.0000  27.2500  12.7500 Du        
  12885 ****       230.0000  27.2500  13.0000 Du        
  12886 ****       230.0000  27.2500  13.2500 Du        
  12887 ****       230.0000  27.2500  13.5000 Du        
  12888 ****       230.0000  27.2500  13.7500 Du        
  12889 ****       230.0000  27.2500  14.0000 Du        
  12890 ****       230.0000  27.5000  12.2500 Du        
  12891 ****       230.0000  27.5000  12.5000 Du        
  12892 ****       230.0000  27.5000  12.7500 Du        
  12893 ****       230.0000  27.5000  13.0000 Du        
  12894 ****       230.0000  27.5000  13.2500 Du        
  12895 ****       230.0000  27.5000  13.5000 Du        
  12896 ****       230.0000  27.5000  13.7500 Du        
  12897 ****       230.0000  27.5000  14.0000 Du        
  12898 ****       230.0000  27.7500  12.2500 Du        
  12899 ****       230.0000  27.7500  12.5000 Du        
  12900 ****       230.0000  27.7500  12.7500 Du        
  12901 ****       230.0000  27.7500  13.0000 Du        
  12902 ****       230.0000  27.7500  13.2500 Du        
  12903 ****       230.0000  27.7500  13.5000 Du        
  12904 ****       230.0000  27.7500  13.7500 Du        
  12905 ****       230.0000  28.0000  12.2500 Du        
  12906 ****       230.0000  28.0000  12.5000 Du        
  12907 ****       230.0000  28.0000  12.7500 Du        
  12908 ****       230.0000  28.0000  13.0000 Du        
  12909 ****       230.0000  28.0000  13.2500 Du        
  12910 ****       230.0000  28.0000  13.5000 Du        
  12911 ****       230.0000  28.2500  12.2500 Du        
  12912 ****       230.0000  28.2500  12.5000 Du        
  12913 ****       230.0000  28.2500  12.7500 Du        
  12914 ****       230.0000  28.2500  13.0000 Du        
  12915 ****       230.0000  28.2500  13.2500 Du        
  12916 ****       230.0000  28.5000  12.5000 Du        
  12917 ****       230.0000  28.5000  12.7500 Du        
  12918 ****       230.0000  28.5000  13.0000 Du        
  12919 ****       230.0000  28.5000  13.2500 Du        
  12920 ****       230.2500  15.5000  13.7500 Du        
  12921 ****       230.2500  15.5000  14.0000 Du        
  12922 ****       230.2500  15.7500  13.5000 Du        
  12923 ****       230.2500  15.7500  13.7500 Du        
  12924 ****       230.2500  15.7500  14.0000 Du        
  12925 ****       230.2500  15.7500  14.2500 Du        
  12926 ****       230.2500  16.0000  13.5000 Du        
  12927 ****       230.2500  16.0000  13.7500 Du        
  12928 ****       230.2500  16.0000  14.0000 Du        
  12929 ****       230.2500  16.0000  14.2500 Du        
  12930 ****       230.2500  16.2500  13.2500 Du        
  12931 ****       230.2500  16.2500  13.5000 Du        
  12932 ****       230.2500  16.2500  13.7500 Du        
  12933 ****       230.2500  16.2500  14.0000 Du        
  12934 ****       230.2500  16.2500  14.2500 Du        
  12935 ****       230.2500  16.2500  14.5000 Du        
  12936 ****       230.2500  16.5000  13.2500 Du        
  12937 ****       230.2500  16.5000  13.5000 Du        
  12938 ****       230.2500  16.5000  13.7500 Du        
  12939 ****       230.2500  16.5000  14.0000 Du        
  12940 ****       230.2500  16.5000  14.2500 Du        
  12941 ****       230.2500  16.5000  14.5000 Du        
  12942 ****       230.2500  16.7500  13.0000 Du        
  12943 ****       230.2500  16.7500  13.2500 Du        
  12944 ****       230.2500  16.7500  13.5000 Du        
  12945 ****       230.2500  16.7500  13.7500 Du        
  12946 ****       230.2500  16.7500  14.0000 Du        
  12947 ****       230.2500  16.7500  14.2500 Du        
  12948 ****       230.2500  16.7500  14.5000 Du        
  12949 ****       230.2500  16.7500  14.7500 Du        
  12950 ****       230.2500  16.7500  15.0000 Du        
  12951 ****       230.2500  17.0000  13.0000 Du        
  12952 ****       230.2500  17.0000  13.2500 Du        
  12953 ****       230.2500  17.0000  13.5000 Du        
  12954 ****       230.2500  17.0000  13.7500 Du        
  12955 ****       230.2500  17.0000  14.0000 Du        
  12956 ****       230.2500  17.0000  14.2500 Du        
  12957 ****       230.2500  17.0000  14.5000 Du        
  12958 ****       230.2500  17.0000  14.7500 Du        
  12959 ****       230.2500  17.0000  15.0000 Du        
  12960 ****       230.2500  17.2500  12.7500 Du        
  12961 ****       230.2500  17.2500  13.0000 Du        
  12962 ****       230.2500  17.2500  13.2500 Du        
  12963 ****       230.2500  17.2500  13.5000 Du        
  12964 ****       230.2500  17.2500  13.7500 Du        
  12965 ****       230.2500  17.2500  14.0000 Du        
  12966 ****       230.2500  17.2500  14.2500 Du        
  12967 ****       230.2500  17.2500  14.5000 Du        
  12968 ****       230.2500  17.2500  14.7500 Du        
  12969 ****       230.2500  17.2500  15.0000 Du        
  12970 ****       230.2500  17.5000  12.7500 Du        
  12971 ****       230.2500  17.5000  13.0000 Du        
  12972 ****       230.2500  17.5000  13.2500 Du        
  12973 ****       230.2500  17.5000  13.5000 Du        
  12974 ****       230.2500  17.5000  13.7500 Du        
  12975 ****       230.2500  17.5000  14.0000 Du        
  12976 ****       230.2500  17.5000  14.2500 Du        
  12977 ****       230.2500  17.5000  14.5000 Du        
  12978 ****       230.2500  17.5000  14.7500 Du        
  12979 ****       230.2500  17.5000  15.0000 Du        
  12980 ****       230.2500  17.7500  12.5000 Du        
  12981 ****       230.2500  17.7500  12.7500 Du        
  12982 ****       230.2500  17.7500  13.0000 Du        
  12983 ****       230.2500  17.7500  13.2500 Du        
  12984 ****       230.2500  17.7500  13.5000 Du        
  12985 ****       230.2500  17.7500  13.7500 Du        
  12986 ****       230.2500  17.7500  14.0000 Du        
  12987 ****       230.2500  17.7500  14.2500 Du        
  12988 ****       230.2500  17.7500  14.5000 Du        
  12989 ****       230.2500  17.7500  14.7500 Du        
  12990 ****       230.2500  18.0000  12.5000 Du        
  12991 ****       230.2500  18.0000  12.7500 Du        
  12992 ****       230.2500  18.0000  13.0000 Du        
  12993 ****       230.2500  18.0000  13.2500 Du        
  12994 ****       230.2500  18.0000  13.5000 Du        
  12995 ****       230.2500  18.0000  13.7500 Du        
  12996 ****       230.2500  18.0000  14.0000 Du        
  12997 ****       230.2500  18.0000  14.2500 Du        
  12998 ****       230.2500  18.0000  14.5000 Du        
  12999 ****       230.2500  18.2500  12.2500 Du        
  13000 ****       230.2500  18.2500  12.5000 Du        
  13001 ****       230.2500  18.2500  12.7500 Du        
  13002 ****       230.2500  18.2500  13.0000 Du        
  13003 ****       230.2500  18.2500  13.2500 Du        
  13004 ****       230.2500  18.2500  13.5000 Du        
  13005 ****       230.2500  18.2500  13.7500 Du        
  13006 ****       230.2500  18.2500  14.0000 Du        
  13007 ****       230.2500  18.2500  14.2500 Du        
  13008 ****       230.2500  18.5000  12.0000 Du        
  13009 ****       230.2500  18.5000  12.2500 Du        
  13010 ****       230.2500  18.5000  12.5000 Du        
  13011 ****       230.2500  18.5000  12.7500 Du        
  13012 ****       230.2500  18.5000  13.0000 Du        
  13013 ****       230.2500  18.5000  13.2500 Du        
  13014 ****       230.2500  18.5000  13.5000 Du        
  13015 ****       230.2500  18.5000  13.7500 Du        
  13016 ****       230.2500  18.5000  14.0000 Du        
  13017 ****       230.2500  18.7500  11.7500 Du        
  13018 ****       230.2500  18.7500  12.0000 Du        
  13019 ****       230.2500  18.7500  12.2500 Du        
  13020 ****       230.2500  18.7500  12.5000 Du        
  13021 ****       230.2500  18.7500  12.7500 Du        
  13022 ****       230.2500  18.7500  13.0000 Du        
  13023 ****       230.2500  18.7500  13.2500 Du        
  13024 ****       230.2500  18.7500  13.5000 Du        
  13025 ****       230.2500  18.7500  13.7500 Du        
  13026 ****       230.2500  19.0000  11.7500 Du        
  13027 ****       230.2500  19.0000  12.0000 Du        
  13028 ****       230.2500  19.0000  12.2500 Du        
  13029 ****       230.2500  19.0000  12.5000 Du        
  13030 ****       230.2500  19.0000  12.7500 Du        
  13031 ****       230.2500  19.0000  13.0000 Du        
  13032 ****       230.2500  19.0000  13.2500 Du        
  13033 ****       230.2500  19.0000  13.5000 Du        
  13034 ****       230.2500  19.2500  11.2500 Du        
  13035 ****       230.2500  19.2500  11.5000 Du        
  13036 ****       230.2500  19.2500  11.7500 Du        
  13037 ****       230.2500  19.2500  12.0000 Du        
  13038 ****       230.2500  19.2500  12.2500 Du        
  13039 ****       230.2500  19.2500  12.5000 Du        
  13040 ****       230.2500  19.2500  12.7500 Du        
  13041 ****       230.2500  19.2500  13.0000 Du        
  13042 ****       230.2500  19.2500  13.2500 Du        
  13043 ****       230.2500  19.2500  13.5000 Du        
  13044 ****       230.2500  19.5000  10.7500 Du        
  13045 ****       230.2500  19.5000  11.0000 Du        
  13046 ****       230.2500  19.5000  11.2500 Du        
  13047 ****       230.2500  19.5000  11.5000 Du        
  13048 ****       230.2500  19.5000  11.7500 Du        
  13049 ****       230.2500  19.5000  12.0000 Du        
  13050 ****       230.2500  19.5000  12.2500 Du        
  13051 ****       230.2500  19.5000  12.5000 Du        
  13052 ****       230.2500  19.5000  12.7500 Du        
  13053 ****       230.2500  19.5000  13.0000 Du        
  13054 ****       230.2500  19.5000  13.2500 Du        
  13055 ****       230.2500  19.7500  10.2500 Du        
  13056 ****       230.2500  19.7500  10.5000 Du        
  13057 ****       230.2500  19.7500  10.7500 Du        
  13058 ****       230.2500  19.7500  11.0000 Du        
  13059 ****       230.2500  19.7500  11.2500 Du        
  13060 ****       230.2500  19.7500  11.5000 Du        
  13061 ****       230.2500  19.7500  11.7500 Du        
  13062 ****       230.2500  19.7500  12.0000 Du        
  13063 ****       230.2500  19.7500  12.2500 Du        
  13064 ****       230.2500  19.7500  12.5000 Du        
  13065 ****       230.2500  19.7500  12.7500 Du        
  13066 ****       230.2500  19.7500  13.0000 Du        
  13067 ****       230.2500  19.7500  13.2500 Du        
  13068 ****       230.2500  20.0000  10.0000 Du        
  13069 ****       230.2500  20.0000  10.2500 Du        
  13070 ****       230.2500  20.0000  10.5000 Du        
  13071 ****       230.2500  20.0000  10.7500 Du        
  13072 ****       230.2500  20.0000  11.0000 Du        
  13073 ****       230.2500  20.0000  11.2500 Du        
  13074 ****       230.2500  20.0000  11.5000 Du        
  13075 ****       230.2500  20.0000  11.7500 Du        
  13076 ****       230.2500  20.0000  12.0000 Du        
  13077 ****       230.2500  20.0000  12.2500 Du        
  13078 ****       230.2500  20.0000  12.5000 Du        
  13079 ****       230.2500  20.0000  12.7500 Du        
  13080 ****       230.2500  20.0000  13.0000 Du        
  13081 ****       230.2500  20.0000  13.2500 Du        
  13082 ****       230.2500  20.2500  10.0000 Du        
  13083 ****       230.2500  20.2500  10.2500 Du        
  13084 ****       230.2500  20.2500  10.5000 Du        
  13085 ****       230.2500  20.2500  10.7500 Du        
  13086 ****       230.2500  20.2500  11.0000 Du        
  13087 ****       230.2500  20.2500  11.2500 Du        
  13088 ****       230.2500  20.2500  11.5000 Du        
  13089 ****       230.2500  20.2500  11.7500 Du        
  13090 ****       230.2500  20.2500  12.0000 Du        
  13091 ****       230.2500  20.2500  12.2500 Du        
  13092 ****       230.2500  20.2500  12.5000 Du        
  13093 ****       230.2500  20.2500  12.7500 Du        
  13094 ****       230.2500  20.2500  13.0000 Du        
  13095 ****       230.2500  20.2500  13.2500 Du        
  13096 ****       230.2500  20.5000  10.7500 Du        
  13097 ****       230.2500  20.5000  11.0000 Du        
  13098 ****       230.2500  20.5000  11.2500 Du        
  13099 ****       230.2500  20.5000  11.5000 Du        
  13100 ****       230.2500  20.5000  11.7500 Du        
  13101 ****       230.2500  20.5000  12.0000 Du        
  13102 ****       230.2500  20.5000  12.2500 Du        
  13103 ****       230.2500  20.5000  12.5000 Du        
  13104 ****       230.2500  20.5000  12.7500 Du        
  13105 ****       230.2500  20.5000  13.0000 Du        
  13106 ****       230.2500  20.7500  11.0000 Du        
  13107 ****       230.2500  20.7500  11.2500 Du        
  13108 ****       230.2500  20.7500  11.5000 Du        
  13109 ****       230.2500  20.7500  11.7500 Du        
  13110 ****       230.2500  20.7500  12.0000 Du        
  13111 ****       230.2500  20.7500  12.2500 Du        
  13112 ****       230.2500  20.7500  12.5000 Du        
  13113 ****       230.2500  20.7500  12.7500 Du        
  13114 ****       230.2500  21.0000  11.7500 Du        
  13115 ****       230.2500  21.0000  12.0000 Du        
  13116 ****       230.2500  21.0000  12.2500 Du        
  13117 ****       230.2500  21.0000  12.5000 Du        
  13118 ****       230.2500  25.5000  13.0000 Du        
  13119 ****       230.2500  25.5000  13.2500 Du        
  13120 ****       230.2500  25.5000  13.5000 Du        
  13121 ****       230.2500  25.5000  13.7500 Du        
  13122 ****       230.2500  25.5000  14.0000 Du        
  13123 ****       230.2500  25.7500  12.5000 Du        
  13124 ****       230.2500  25.7500  12.7500 Du        
  13125 ****       230.2500  25.7500  13.0000 Du        
  13126 ****       230.2500  25.7500  13.2500 Du        
  13127 ****       230.2500  25.7500  13.5000 Du        
  13128 ****       230.2500  25.7500  13.7500 Du        
  13129 ****       230.2500  25.7500  14.0000 Du        
  13130 ****       230.2500  25.7500  14.2500 Du        
  13131 ****       230.2500  26.0000  12.5000 Du        
  13132 ****       230.2500  26.0000  12.7500 Du        
  13133 ****       230.2500  26.0000  13.0000 Du        
  13134 ****       230.2500  26.0000  13.2500 Du        
  13135 ****       230.2500  26.0000  13.5000 Du        
  13136 ****       230.2500  26.0000  13.7500 Du        
  13137 ****       230.2500  26.0000  14.0000 Du        
  13138 ****       230.2500  26.0000  14.2500 Du        
  13139 ****       230.2500  26.2500  12.5000 Du        
  13140 ****       230.2500  26.2500  12.7500 Du        
  13141 ****       230.2500  26.2500  13.0000 Du        
  13142 ****       230.2500  26.2500  13.2500 Du        
  13143 ****       230.2500  26.2500  13.5000 Du        
  13144 ****       230.2500  26.2500  13.7500 Du        
  13145 ****       230.2500  26.2500  14.0000 Du        
  13146 ****       230.2500  26.2500  14.2500 Du        
  13147 ****       230.2500  26.5000  12.5000 Du        
  13148 ****       230.2500  26.5000  12.7500 Du        
  13149 ****       230.2500  26.5000  13.0000 Du        
  13150 ****       230.2500  26.5000  13.2500 Du        
  13151 ****       230.2500  26.5000  13.5000 Du        
  13152 ****       230.2500  26.5000  13.7500 Du        
  13153 ****       230.2500  26.5000  14.0000 Du        
  13154 ****       230.2500  26.5000  14.2500 Du        
  13155 ****       230.2500  26.7500  12.5000 Du        
  13156 ****       230.2500  26.7500  12.7500 Du        
  13157 ****       230.2500  26.7500  13.0000 Du        
  13158 ****       230.2500  26.7500  13.2500 Du        
  13159 ****       230.2500  26.7500  13.5000 Du        
  13160 ****       230.2500  26.7500  13.7500 Du        
  13161 ****       230.2500  26.7500  14.0000 Du        
  13162 ****       230.2500  26.7500  14.2500 Du        
  13163 ****       230.2500  27.0000  12.5000 Du        
  13164 ****       230.2500  27.0000  12.7500 Du        
  13165 ****       230.2500  27.0000  13.0000 Du        
  13166 ****       230.2500  27.0000  13.2500 Du        
  13167 ****       230.2500  27.0000  13.5000 Du        
  13168 ****       230.2500  27.0000  13.7500 Du        
  13169 ****       230.2500  27.0000  14.0000 Du        
  13170 ****       230.2500  27.2500  12.2500 Du        
  13171 ****       230.2500  27.2500  12.5000 Du        
  13172 ****       230.2500  27.2500  12.7500 Du        
  13173 ****       230.2500  27.2500  13.0000 Du        
  13174 ****       230.2500  27.2500  13.2500 Du        
  13175 ****       230.2500  27.2500  13.5000 Du        
  13176 ****       230.2500  27.2500  13.7500 Du        
  13177 ****       230.2500  27.2500  14.0000 Du        
  13178 ****       230.2500  27.5000  12.2500 Du        
  13179 ****       230.2500  27.5000  12.5000 Du        
  13180 ****       230.2500  27.5000  12.7500 Du        
  13181 ****       230.2500  27.5000  13.0000 Du        
  13182 ****       230.2500  27.5000  13.2500 Du        
  13183 ****       230.2500  27.5000  13.5000 Du        
  13184 ****       230.2500  27.5000  13.7500 Du        
  13185 ****       230.2500  27.7500  12.2500 Du        
  13186 ****       230.2500  27.7500  12.5000 Du        
  13187 ****       230.2500  27.7500  12.7500 Du        
  13188 ****       230.2500  27.7500  13.0000 Du        
  13189 ****       230.2500  27.7500  13.2500 Du        
  13190 ****       230.2500  27.7500  13.5000 Du        
  13191 ****       230.2500  28.0000  12.2500 Du        
  13192 ****       230.2500  28.0000  12.5000 Du        
  13193 ****       230.2500  28.0000  12.7500 Du        
  13194 ****       230.2500  28.0000  13.0000 Du        
  13195 ****       230.2500  28.0000  13.2500 Du        
  13196 ****       230.2500  28.0000  13.5000 Du        
  13197 ****       230.2500  28.2500  12.2500 Du        
  13198 ****       230.2500  28.2500  12.5000 Du        
  13199 ****       230.2500  28.2500  12.7500 Du        
  13200 ****       230.2500  28.2500  13.0000 Du        
  13201 ****       230.2500  28.2500  13.2500 Du        
  13202 ****       230.2500  28.5000  12.5000 Du        
  13203 ****       230.2500  28.5000  12.7500 Du        
  13204 ****       230.2500  28.5000  13.0000 Du        
  13205 ****       230.5000  16.2500  13.5000 Du        
  13206 ****       230.5000  16.2500  13.7500 Du        
  13207 ****       230.5000  16.2500  14.0000 Du        
  13208 ****       230.5000  16.2500  14.2500 Du        
  13209 ****       230.5000  16.5000  13.2500 Du        
  13210 ****       230.5000  16.5000  13.5000 Du        
  13211 ****       230.5000  16.5000  13.7500 Du        
  13212 ****       230.5000  16.5000  14.0000 Du        
  13213 ****       230.5000  16.5000  14.2500 Du        
  13214 ****       230.5000  16.5000  14.5000 Du        
  13215 ****       230.5000  16.7500  13.0000 Du        
  13216 ****       230.5000  16.7500  13.2500 Du        
  13217 ****       230.5000  16.7500  13.5000 Du        
  13218 ****       230.5000  16.7500  13.7500 Du        
  13219 ****       230.5000  16.7500  14.0000 Du        
  13220 ****       230.5000  16.7500  14.2500 Du        
  13221 ****       230.5000  16.7500  14.5000 Du        
  13222 ****       230.5000  16.7500  14.7500 Du        
  13223 ****       230.5000  17.0000  13.0000 Du        
  13224 ****       230.5000  17.0000  13.2500 Du        
  13225 ****       230.5000  17.0000  13.5000 Du        
  13226 ****       230.5000  17.0000  13.7500 Du        
  13227 ****       230.5000  17.0000  14.0000 Du        
  13228 ****       230.5000  17.0000  14.2500 Du        
  13229 ****       230.5000  17.0000  14.5000 Du        
  13230 ****       230.5000  17.0000  14.7500 Du        
  13231 ****       230.5000  17.0000  15.0000 Du        
  13232 ****       230.5000  17.2500  12.7500 Du        
  13233 ****       230.5000  17.2500  13.0000 Du        
  13234 ****       230.5000  17.2500  13.2500 Du        
  13235 ****       230.5000  17.2500  13.5000 Du        
  13236 ****       230.5000  17.2500  13.7500 Du        
  13237 ****       230.5000  17.2500  14.0000 Du        
  13238 ****       230.5000  17.2500  14.2500 Du        
  13239 ****       230.5000  17.2500  14.5000 Du        
  13240 ****       230.5000  17.2500  14.7500 Du        
  13241 ****       230.5000  17.2500  15.0000 Du        
  13242 ****       230.5000  17.5000  12.7500 Du        
  13243 ****       230.5000  17.5000  13.0000 Du        
  13244 ****       230.5000  17.5000  13.2500 Du        
  13245 ****       230.5000  17.5000  13.5000 Du        
  13246 ****       230.5000  17.5000  13.7500 Du        
  13247 ****       230.5000  17.5000  14.0000 Du        
  13248 ****       230.5000  17.5000  14.2500 Du        
  13249 ****       230.5000  17.5000  14.5000 Du        
  13250 ****       230.5000  17.5000  14.7500 Du        
  13251 ****       230.5000  17.5000  15.0000 Du        
  13252 ****       230.5000  17.7500  12.5000 Du        
  13253 ****       230.5000  17.7500  12.7500 Du        
  13254 ****       230.5000  17.7500  13.0000 Du        
  13255 ****       230.5000  17.7500  13.2500 Du        
  13256 ****       230.5000  17.7500  13.5000 Du        
  13257 ****       230.5000  17.7500  13.7500 Du        
  13258 ****       230.5000  17.7500  14.0000 Du        
  13259 ****       230.5000  17.7500  14.2500 Du        
  13260 ****       230.5000  17.7500  14.5000 Du        
  13261 ****       230.5000  17.7500  14.7500 Du        
  13262 ****       230.5000  17.7500  15.0000 Du        
  13263 ****       230.5000  18.0000  12.5000 Du        
  13264 ****       230.5000  18.0000  12.7500 Du        
  13265 ****       230.5000  18.0000  13.0000 Du        
  13266 ****       230.5000  18.0000  13.2500 Du        
  13267 ****       230.5000  18.0000  13.5000 Du        
  13268 ****       230.5000  18.0000  13.7500 Du        
  13269 ****       230.5000  18.0000  14.0000 Du        
  13270 ****       230.5000  18.0000  14.2500 Du        
  13271 ****       230.5000  18.0000  14.5000 Du        
  13272 ****       230.5000  18.0000  14.7500 Du        
  13273 ****       230.5000  18.2500  12.2500 Du        
  13274 ****       230.5000  18.2500  12.5000 Du        
  13275 ****       230.5000  18.2500  12.7500 Du        
  13276 ****       230.5000  18.2500  13.0000 Du        
  13277 ****       230.5000  18.2500  13.2500 Du        
  13278 ****       230.5000  18.2500  13.5000 Du        
  13279 ****       230.5000  18.2500  13.7500 Du        
  13280 ****       230.5000  18.2500  14.0000 Du        
  13281 ****       230.5000  18.2500  14.2500 Du        
  13282 ****       230.5000  18.2500  14.5000 Du        
  13283 ****       230.5000  18.5000  12.2500 Du        
  13284 ****       230.5000  18.5000  12.5000 Du        
  13285 ****       230.5000  18.5000  12.7500 Du        
  13286 ****       230.5000  18.5000  13.0000 Du        
  13287 ****       230.5000  18.5000  13.2500 Du        
  13288 ****       230.5000  18.5000  13.5000 Du        
  13289 ****       230.5000  18.5000  13.7500 Du        
  13290 ****       230.5000  18.5000  14.0000 Du        
  13291 ****       230.5000  18.5000  14.2500 Du        
  13292 ****       230.5000  18.7500  12.0000 Du        
  13293 ****       230.5000  18.7500  12.2500 Du        
  13294 ****       230.5000  18.7500  12.5000 Du        
  13295 ****       230.5000  18.7500  12.7500 Du        
  13296 ****       230.5000  18.7500  13.0000 Du        
  13297 ****       230.5000  18.7500  13.2500 Du        
  13298 ****       230.5000  18.7500  13.5000 Du        
  13299 ****       230.5000  18.7500  13.7500 Du        
  13300 ****       230.5000  18.7500  14.0000 Du        
  13301 ****       230.5000  19.0000  11.7500 Du        
  13302 ****       230.5000  19.0000  12.0000 Du        
  13303 ****       230.5000  19.0000  12.2500 Du        
  13304 ****       230.5000  19.0000  12.5000 Du        
  13305 ****       230.5000  19.0000  12.7500 Du        
  13306 ****       230.5000  19.0000  13.0000 Du        
  13307 ****       230.5000  19.0000  13.2500 Du        
  13308 ****       230.5000  19.0000  13.5000 Du        
  13309 ****       230.5000  19.0000  13.7500 Du        
  13310 ****       230.5000  19.2500  11.5000 Du        
  13311 ****       230.5000  19.2500  11.7500 Du        
  13312 ****       230.5000  19.2500  12.0000 Du        
  13313 ****       230.5000  19.2500  12.2500 Du        
  13314 ****       230.5000  19.2500  12.5000 Du        
  13315 ****       230.5000  19.2500  12.7500 Du        
  13316 ****       230.5000  19.2500  13.0000 Du        
  13317 ****       230.5000  19.2500  13.2500 Du        
  13318 ****       230.5000  19.2500  13.5000 Du        
  13319 ****       230.5000  19.5000  11.0000 Du        
  13320 ****       230.5000  19.5000  11.2500 Du        
  13321 ****       230.5000  19.5000  11.5000 Du        
  13322 ****       230.5000  19.5000  11.7500 Du        
  13323 ****       230.5000  19.5000  12.0000 Du        
  13324 ****       230.5000  19.5000  12.2500 Du        
  13325 ****       230.5000  19.5000  12.5000 Du        
  13326 ****       230.5000  19.5000  12.7500 Du        
  13327 ****       230.5000  19.5000  13.0000 Du        
  13328 ****       230.5000  19.5000  13.2500 Du        
  13329 ****       230.5000  19.5000  13.5000 Du        
  13330 ****       230.5000  19.7500  10.7500 Du        
  13331 ****       230.5000  19.7500  11.0000 Du        
  13332 ****       230.5000  19.7500  11.2500 Du        
  13333 ****       230.5000  19.7500  11.5000 Du        
  13334 ****       230.5000  19.7500  11.7500 Du        
  13335 ****       230.5000  19.7500  12.0000 Du        
  13336 ****       230.5000  19.7500  12.2500 Du        
  13337 ****       230.5000  19.7500  12.5000 Du        
  13338 ****       230.5000  19.7500  12.7500 Du        
  13339 ****       230.5000  19.7500  13.0000 Du        
  13340 ****       230.5000  19.7500  13.2500 Du        
  13341 ****       230.5000  20.0000  10.5000 Du        
  13342 ****       230.5000  20.0000  10.7500 Du        
  13343 ****       230.5000  20.0000  11.0000 Du        
  13344 ****       230.5000  20.0000  11.2500 Du        
  13345 ****       230.5000  20.0000  11.5000 Du        
  13346 ****       230.5000  20.0000  11.7500 Du        
  13347 ****       230.5000  20.0000  12.0000 Du        
  13348 ****       230.5000  20.0000  12.2500 Du        
  13349 ****       230.5000  20.0000  12.5000 Du        
  13350 ****       230.5000  20.0000  12.7500 Du        
  13351 ****       230.5000  20.0000  13.0000 Du        
  13352 ****       230.5000  20.0000  13.2500 Du        
  13353 ****       230.5000  20.2500  10.5000 Du        
  13354 ****       230.5000  20.2500  10.7500 Du        
  13355 ****       230.5000  20.2500  11.0000 Du        
  13356 ****       230.5000  20.2500  11.2500 Du        
  13357 ****       230.5000  20.2500  11.5000 Du        
  13358 ****       230.5000  20.2500  11.7500 Du        
  13359 ****       230.5000  20.2500  12.0000 Du        
  13360 ****       230.5000  20.2500  12.2500 Du        
  13361 ****       230.5000  20.2500  12.5000 Du        
  13362 ****       230.5000  20.2500  12.7500 Du        
  13363 ****       230.5000  20.2500  13.0000 Du        
  13364 ****       230.5000  20.2500  13.2500 Du        
  13365 ****       230.5000  20.5000  11.0000 Du        
  13366 ****       230.5000  20.5000  11.2500 Du        
  13367 ****       230.5000  20.5000  11.5000 Du        
  13368 ****       230.5000  20.5000  11.7500 Du        
  13369 ****       230.5000  20.5000  12.0000 Du        
  13370 ****       230.5000  20.5000  12.2500 Du        
  13371 ****       230.5000  20.5000  12.5000 Du        
  13372 ****       230.5000  20.5000  12.7500 Du        
  13373 ****       230.5000  20.5000  13.0000 Du        
  13374 ****       230.5000  20.7500  11.7500 Du        
  13375 ****       230.5000  20.7500  12.0000 Du        
  13376 ****       230.5000  20.7500  12.2500 Du        
  13377 ****       230.5000  20.7500  12.5000 Du        
  13378 ****       230.5000  20.7500  12.7500 Du        
  13379 ****       230.5000  25.7500  12.5000 Du        
  13380 ****       230.5000  25.7500  12.7500 Du        
  13381 ****       230.5000  25.7500  13.0000 Du        
  13382 ****       230.5000  25.7500  13.2500 Du        
  13383 ****       230.5000  25.7500  13.5000 Du        
  13384 ****       230.5000  25.7500  13.7500 Du        
  13385 ****       230.5000  25.7500  14.0000 Du        
  13386 ****       230.5000  26.0000  12.5000 Du        
  13387 ****       230.5000  26.0000  12.7500 Du        
  13388 ****       230.5000  26.0000  13.0000 Du        
  13389 ****       230.5000  26.0000  13.2500 Du        
  13390 ****       230.5000  26.0000  13.5000 Du        
  13391 ****       230.5000  26.0000  13.7500 Du        
  13392 ****       230.5000  26.0000  14.0000 Du        
  13393 ****       230.5000  26.2500  12.5000 Du        
  13394 ****       230.5000  26.2500  12.7500 Du        
  13395 ****       230.5000  26.2500  13.0000 Du        
  13396 ****       230.5000  26.2500  13.2500 Du        
  13397 ****       230.5000  26.2500  13.5000 Du        
  13398 ****       230.5000  26.2500  13.7500 Du        
  13399 ****       230.5000  26.2500  14.0000 Du        
  13400 ****       230.5000  26.5000  12.5000 Du        
  13401 ****       230.5000  26.5000  12.7500 Du        
  13402 ****       230.5000  26.5000  13.0000 Du        
  13403 ****       230.5000  26.5000  13.2500 Du        
  13404 ****       230.5000  26.5000  13.5000 Du        
  13405 ****       230.5000  26.5000  13.7500 Du        
  13406 ****       230.5000  26.5000  14.0000 Du        
  13407 ****       230.5000  26.7500  12.5000 Du        
  13408 ****       230.5000  26.7500  12.7500 Du        
  13409 ****       230.5000  26.7500  13.0000 Du        
  13410 ****       230.5000  26.7500  13.2500 Du        
  13411 ****       230.5000  26.7500  13.5000 Du        
  13412 ****       230.5000  26.7500  13.7500 Du        
  13413 ****       230.5000  26.7500  14.0000 Du        
  13414 ****       230.5000  27.0000  12.2500 Du        
  13415 ****       230.5000  27.0000  12.5000 Du        
  13416 ****       230.5000  27.0000  12.7500 Du        
  13417 ****       230.5000  27.0000  13.0000 Du        
  13418 ****       230.5000  27.0000  13.2500 Du        
  13419 ****       230.5000  27.0000  13.5000 Du        
  13420 ****       230.5000  27.0000  13.7500 Du        
  13421 ****       230.5000  27.0000  14.0000 Du        
  13422 ****       230.5000  27.2500  12.2500 Du        
  13423 ****       230.5000  27.2500  12.5000 Du        
  13424 ****       230.5000  27.2500  12.7500 Du        
  13425 ****       230.5000  27.2500  13.0000 Du        
  13426 ****       230.5000  27.2500  13.2500 Du        
  13427 ****       230.5000  27.2500  13.5000 Du        
  13428 ****       230.5000  27.2500  13.7500 Du        
  13429 ****       230.5000  27.5000  12.2500 Du        
  13430 ****       230.5000  27.5000  12.5000 Du        
  13431 ****       230.5000  27.5000  12.7500 Du        
  13432 ****       230.5000  27.5000  13.0000 Du        
  13433 ****       230.5000  27.5000  13.2500 Du        
  13434 ****       230.5000  27.5000  13.5000 Du        
  13435 ****       230.5000  27.7500  12.2500 Du        
  13436 ****       230.5000  27.7500  12.5000 Du        
  13437 ****       230.5000  27.7500  12.7500 Du        
  13438 ****       230.5000  27.7500  13.0000 Du        
  13439 ****       230.5000  27.7500  13.2500 Du        
  13440 ****       230.5000  27.7500  13.5000 Du        
  13441 ****       230.5000  28.0000  12.2500 Du        
  13442 ****       230.5000  28.0000  12.5000 Du        
  13443 ****       230.5000  28.0000  12.7500 Du        
  13444 ****       230.5000  28.0000  13.0000 Du        
  13445 ****       230.5000  28.0000  13.2500 Du        
  13446 ****       230.5000  28.2500  12.2500 Du        
  13447 ****       230.5000  28.2500  12.5000 Du        
  13448 ****       230.5000  28.2500  12.7500 Du        
  13449 ****       230.5000  28.2500  13.0000 Du        
  13450 ****       230.5000  28.5000  12.5000 Du        
  13451 ****       230.5000  28.5000  12.7500 Du        
  13452 ****       230.5000  28.5000  13.0000 Du        
  13453 ****       230.7500  16.7500  13.2500 Du        
  13454 ****       230.7500  16.7500  13.5000 Du        
  13455 ****       230.7500  16.7500  13.7500 Du        
  13456 ****       230.7500  16.7500  14.0000 Du        
  13457 ****       230.7500  16.7500  14.2500 Du        
  13458 ****       230.7500  17.0000  13.0000 Du        
  13459 ****       230.7500  17.0000  13.2500 Du        
  13460 ****       230.7500  17.0000  13.5000 Du        
  13461 ****       230.7500  17.0000  13.7500 Du        
  13462 ****       230.7500  17.0000  14.0000 Du        
  13463 ****       230.7500  17.0000  14.2500 Du        
  13464 ****       230.7500  17.0000  14.5000 Du        
  13465 ****       230.7500  17.0000  14.7500 Du        
  13466 ****       230.7500  17.2500  12.7500 Du        
  13467 ****       230.7500  17.2500  13.0000 Du        
  13468 ****       230.7500  17.2500  13.2500 Du        
  13469 ****       230.7500  17.2500  13.5000 Du        
  13470 ****       230.7500  17.2500  13.7500 Du        
  13471 ****       230.7500  17.2500  14.0000 Du        
  13472 ****       230.7500  17.2500  14.2500 Du        
  13473 ****       230.7500  17.2500  14.5000 Du        
  13474 ****       230.7500  17.2500  14.7500 Du        
  13475 ****       230.7500  17.2500  15.0000 Du        
  13476 ****       230.7500  17.5000  12.7500 Du        
  13477 ****       230.7500  17.5000  13.0000 Du        
  13478 ****       230.7500  17.5000  13.2500 Du        
  13479 ****       230.7500  17.5000  13.5000 Du        
  13480 ****       230.7500  17.5000  13.7500 Du        
  13481 ****       230.7500  17.5000  14.0000 Du        
  13482 ****       230.7500  17.5000  14.2500 Du        
  13483 ****       230.7500  17.5000  14.5000 Du        
  13484 ****       230.7500  17.5000  14.7500 Du        
  13485 ****       230.7500  17.5000  15.0000 Du        
  13486 ****       230.7500  17.7500  12.5000 Du        
  13487 ****       230.7500  17.7500  12.7500 Du        
  13488 ****       230.7500  17.7500  13.0000 Du        
  13489 ****       230.7500  17.7500  13.2500 Du        
  13490 ****       230.7500  17.7500  13.5000 Du        
  13491 ****       230.7500  17.7500  13.7500 Du        
  13492 ****       230.7500  17.7500  14.0000 Du        
  13493 ****       230.7500  17.7500  14.2500 Du        
  13494 ****       230.7500  17.7500  14.5000 Du        
  13495 ****       230.7500  17.7500  14.7500 Du        
  13496 ****       230.7500  17.7500  15.0000 Du        
  13497 ****       230.7500  18.0000  12.5000 Du        
  13498 ****       230.7500  18.0000  12.7500 Du        
  13499 ****       230.7500  18.0000  13.0000 Du        
  13500 ****       230.7500  18.0000  13.2500 Du        
  13501 ****       230.7500  18.0000  13.5000 Du        
  13502 ****       230.7500  18.0000  13.7500 Du        
  13503 ****       230.7500  18.0000  14.0000 Du        
  13504 ****       230.7500  18.0000  14.2500 Du        
  13505 ****       230.7500  18.0000  14.5000 Du        
  13506 ****       230.7500  18.0000  14.7500 Du        
  13507 ****       230.7500  18.2500  12.2500 Du        
  13508 ****       230.7500  18.2500  12.5000 Du        
  13509 ****       230.7500  18.2500  12.7500 Du        
  13510 ****       230.7500  18.2500  13.0000 Du        
  13511 ****       230.7500  18.2500  13.2500 Du        
  13512 ****       230.7500  18.2500  13.5000 Du        
  13513 ****       230.7500  18.2500  13.7500 Du        
  13514 ****       230.7500  18.2500  14.0000 Du        
  13515 ****       230.7500  18.2500  14.2500 Du        
  13516 ****       230.7500  18.2500  14.5000 Du        
  13517 ****       230.7500  18.5000  12.2500 Du        
  13518 ****       230.7500  18.5000  12.5000 Du        
  13519 ****       230.7500  18.5000  12.7500 Du        
  13520 ****       230.7500  18.5000  13.0000 Du        
  13521 ****       230.7500  18.5000  13.2500 Du        
  13522 ****       230.7500  18.5000  13.5000 Du        
  13523 ****       230.7500  18.5000  13.7500 Du        
  13524 ****       230.7500  18.5000  14.0000 Du        
  13525 ****       230.7500  18.5000  14.2500 Du        
  13526 ****       230.7500  18.7500  12.0000 Du        
  13527 ****       230.7500  18.7500  12.2500 Du        
  13528 ****       230.7500  18.7500  12.5000 Du        
  13529 ****       230.7500  18.7500  12.7500 Du        
  13530 ****       230.7500  18.7500  13.0000 Du        
  13531 ****       230.7500  18.7500  13.2500 Du        
  13532 ****       230.7500  18.7500  13.5000 Du        
  13533 ****       230.7500  18.7500  13.7500 Du        
  13534 ****       230.7500  18.7500  14.0000 Du        
  13535 ****       230.7500  19.0000  11.7500 Du        
  13536 ****       230.7500  19.0000  12.0000 Du        
  13537 ****       230.7500  19.0000  12.2500 Du        
  13538 ****       230.7500  19.0000  12.5000 Du        
  13539 ****       230.7500  19.0000  12.7500 Du        
  13540 ****       230.7500  19.0000  13.0000 Du        
  13541 ****       230.7500  19.0000  13.2500 Du        
  13542 ****       230.7500  19.0000  13.5000 Du        
  13543 ****       230.7500  19.0000  13.7500 Du        
  13544 ****       230.7500  19.0000  14.0000 Du        
  13545 ****       230.7500  19.2500  11.5000 Du        
  13546 ****       230.7500  19.2500  11.7500 Du        
  13547 ****       230.7500  19.2500  12.0000 Du        
  13548 ****       230.7500  19.2500  12.2500 Du        
  13549 ****       230.7500  19.2500  12.5000 Du        
  13550 ****       230.7500  19.2500  12.7500 Du        
  13551 ****       230.7500  19.2500  13.0000 Du        
  13552 ****       230.7500  19.2500  13.2500 Du        
  13553 ****       230.7500  19.2500  13.5000 Du        
  13554 ****       230.7500  19.2500  13.7500 Du        
  13555 ****       230.7500  19.5000  11.2500 Du        
  13556 ****       230.7500  19.5000  11.5000 Du        
  13557 ****       230.7500  19.5000  11.7500 Du        
  13558 ****       230.7500  19.5000  12.0000 Du        
  13559 ****       230.7500  19.5000  12.2500 Du        
  13560 ****       230.7500  19.5000  12.5000 Du        
  13561 ****       230.7500  19.5000  12.7500 Du        
  13562 ****       230.7500  19.5000  13.0000 Du        
  13563 ****       230.7500  19.5000  13.2500 Du        
  13564 ****       230.7500  19.5000  13.5000 Du        
  13565 ****       230.7500  19.7500  11.0000 Du        
  13566 ****       230.7500  19.7500  11.2500 Du        
  13567 ****       230.7500  19.7500  11.5000 Du        
  13568 ****       230.7500  19.7500  11.7500 Du        
  13569 ****       230.7500  19.7500  12.0000 Du        
  13570 ****       230.7500  19.7500  12.2500 Du        
  13571 ****       230.7500  19.7500  12.5000 Du        
  13572 ****       230.7500  19.7500  12.7500 Du        
  13573 ****       230.7500  19.7500  13.0000 Du        
  13574 ****       230.7500  19.7500  13.2500 Du        
  13575 ****       230.7500  19.7500  13.5000 Du        
  13576 ****       230.7500  20.0000  10.7500 Du        
  13577 ****       230.7500  20.0000  11.0000 Du        
  13578 ****       230.7500  20.0000  11.2500 Du        
  13579 ****       230.7500  20.0000  11.5000 Du        
  13580 ****       230.7500  20.0000  11.7500 Du        
  13581 ****       230.7500  20.0000  12.0000 Du        
  13582 ****       230.7500  20.0000  12.2500 Du        
  13583 ****       230.7500  20.0000  12.5000 Du        
  13584 ****       230.7500  20.0000  12.7500 Du        
  13585 ****       230.7500  20.0000  13.0000 Du        
  13586 ****       230.7500  20.0000  13.2500 Du        
  13587 ****       230.7500  20.2500  11.0000 Du        
  13588 ****       230.7500  20.2500  11.2500 Du        
  13589 ****       230.7500  20.2500  11.5000 Du        
  13590 ****       230.7500  20.2500  11.7500 Du        
  13591 ****       230.7500  20.2500  12.0000 Du        
  13592 ****       230.7500  20.2500  12.2500 Du        
  13593 ****       230.7500  20.2500  12.5000 Du        
  13594 ****       230.7500  20.2500  12.7500 Du        
  13595 ****       230.7500  20.2500  13.0000 Du        
  13596 ****       230.7500  20.2500  13.2500 Du        
  13597 ****       230.7500  20.5000  11.7500 Du        
  13598 ****       230.7500  20.5000  12.0000 Du        
  13599 ****       230.7500  20.5000  12.2500 Du        
  13600 ****       230.7500  20.5000  12.5000 Du        
  13601 ****       230.7500  20.5000  12.7500 Du        
  13602 ****       230.7500  26.0000  12.5000 Du        
  13603 ****       230.7500  26.0000  12.7500 Du        
  13604 ****       230.7500  26.0000  13.0000 Du        
  13605 ****       230.7500  26.0000  13.2500 Du        
  13606 ****       230.7500  26.0000  13.5000 Du        
  13607 ****       230.7500  26.0000  13.7500 Du        
  13608 ****       230.7500  26.0000  14.0000 Du        
  13609 ****       230.7500  26.2500  12.5000 Du        
  13610 ****       230.7500  26.2500  12.7500 Du        
  13611 ****       230.7500  26.2500  13.0000 Du        
  13612 ****       230.7500  26.2500  13.2500 Du        
  13613 ****       230.7500  26.2500  13.5000 Du        
  13614 ****       230.7500  26.2500  13.7500 Du        
  13615 ****       230.7500  26.2500  14.0000 Du        
  13616 ****       230.7500  26.5000  12.2500 Du        
  13617 ****       230.7500  26.5000  12.5000 Du        
  13618 ****       230.7500  26.5000  12.7500 Du        
  13619 ****       230.7500  26.5000  13.0000 Du        
  13620 ****       230.7500  26.5000  13.2500 Du        
  13621 ****       230.7500  26.5000  13.5000 Du        
  13622 ****       230.7500  26.5000  13.7500 Du        
  13623 ****       230.7500  26.5000  14.0000 Du        
  13624 ****       230.7500  26.7500  12.2500 Du        
  13625 ****       230.7500  26.7500  12.5000 Du        
  13626 ****       230.7500  26.7500  12.7500 Du        
  13627 ****       230.7500  26.7500  13.0000 Du        
  13628 ****       230.7500  26.7500  13.2500 Du        
  13629 ****       230.7500  26.7500  13.5000 Du        
  13630 ****       230.7500  26.7500  13.7500 Du        
  13631 ****       230.7500  26.7500  14.0000 Du        
  13632 ****       230.7500  27.0000  12.2500 Du        
  13633 ****       230.7500  27.0000  12.5000 Du        
  13634 ****       230.7500  27.0000  12.7500 Du        
  13635 ****       230.7500  27.0000  13.0000 Du        
  13636 ****       230.7500  27.0000  13.2500 Du        
  13637 ****       230.7500  27.0000  13.5000 Du        
  13638 ****       230.7500  27.0000  13.7500 Du        
  13639 ****       230.7500  27.2500  12.2500 Du        
  13640 ****       230.7500  27.2500  12.5000 Du        
  13641 ****       230.7500  27.2500  12.7500 Du        
  13642 ****       230.7500  27.2500  13.0000 Du        
  13643 ****       230.7500  27.2500  13.2500 Du        
  13644 ****       230.7500  27.2500  13.5000 Du        
  13645 ****       230.7500  27.2500  13.7500 Du        
  13646 ****       230.7500  27.5000  12.2500 Du        
  13647 ****       230.7500  27.5000  12.5000 Du        
  13648 ****       230.7500  27.5000  12.7500 Du        
  13649 ****       230.7500  27.5000  13.0000 Du        
  13650 ****       230.7500  27.5000  13.2500 Du        
  13651 ****       230.7500  27.5000  13.5000 Du        
  13652 ****       230.7500  27.7500  12.2500 Du        
  13653 ****       230.7500  27.7500  12.5000 Du        
  13654 ****       230.7500  27.7500  12.7500 Du        
  13655 ****       230.7500  27.7500  13.0000 Du        
  13656 ****       230.7500  27.7500  13.2500 Du        
  13657 ****       230.7500  28.0000  12.2500 Du        
  13658 ****       230.7500  28.0000  12.5000 Du        
  13659 ****       230.7500  28.0000  12.7500 Du        
  13660 ****       230.7500  28.0000  13.0000 Du        
  13661 ****       230.7500  28.0000  13.2500 Du        
  13662 ****       230.7500  28.2500  12.2500 Du        
  13663 ****       230.7500  28.2500  12.5000 Du        
  13664 ****       230.7500  28.2500  12.7500 Du        
  13665 ****       230.7500  28.2500  13.0000 Du        
  13666 ****       230.7500  28.5000  12.5000 Du        
  13667 ****       230.7500  28.5000  12.7500 Du        
  13668 ****       231.0000  17.0000  14.2500 Du        
  13669 ****       231.0000  17.2500  13.0000 Du        
  13670 ****       231.0000  17.2500  13.2500 Du        
  13671 ****       231.0000  17.2500  13.5000 Du        
  13672 ****       231.0000  17.2500  13.7500 Du        
  13673 ****       231.0000  17.2500  14.0000 Du        
  13674 ****       231.0000  17.2500  14.2500 Du        
  13675 ****       231.0000  17.2500  14.5000 Du        
  13676 ****       231.0000  17.2500  14.7500 Du        
  13677 ****       231.0000  17.5000  12.7500 Du        
  13678 ****       231.0000  17.5000  13.0000 Du        
  13679 ****       231.0000  17.5000  13.2500 Du        
  13680 ****       231.0000  17.5000  13.5000 Du        
  13681 ****       231.0000  17.5000  13.7500 Du        
  13682 ****       231.0000  17.5000  14.0000 Du        
  13683 ****       231.0000  17.5000  14.2500 Du        
  13684 ****       231.0000  17.5000  14.5000 Du        
  13685 ****       231.0000  17.5000  14.7500 Du        
  13686 ****       231.0000  17.5000  15.0000 Du        
  13687 ****       231.0000  17.7500  12.5000 Du        
  13688 ****       231.0000  17.7500  12.7500 Du        
  13689 ****       231.0000  17.7500  13.0000 Du        
  13690 ****       231.0000  17.7500  13.2500 Du        
  13691 ****       231.0000  17.7500  13.5000 Du        
  13692 ****       231.0000  17.7500  13.7500 Du        
  13693 ****       231.0000  17.7500  14.0000 Du        
  13694 ****       231.0000  17.7500  14.2500 Du        
  13695 ****       231.0000  17.7500  14.5000 Du        
  13696 ****       231.0000  17.7500  14.7500 Du        
  13697 ****       231.0000  17.7500  15.0000 Du        
  13698 ****       231.0000  18.0000  12.5000 Du        
  13699 ****       231.0000  18.0000  12.7500 Du        
  13700 ****       231.0000  18.0000  13.0000 Du        
  13701 ****       231.0000  18.0000  13.2500 Du        
  13702 ****       231.0000  18.0000  13.5000 Du        
  13703 ****       231.0000  18.0000  13.7500 Du        
  13704 ****       231.0000  18.0000  14.0000 Du        
  13705 ****       231.0000  18.0000  14.2500 Du        
  13706 ****       231.0000  18.0000  14.5000 Du        
  13707 ****       231.0000  18.0000  14.7500 Du        
  13708 ****       231.0000  18.2500  12.2500 Du        
  13709 ****       231.0000  18.2500  12.5000 Du        
  13710 ****       231.0000  18.2500  12.7500 Du        
  13711 ****       231.0000  18.2500  13.0000 Du        
  13712 ****       231.0000  18.2500  13.2500 Du        
  13713 ****       231.0000  18.2500  13.5000 Du        
  13714 ****       231.0000  18.2500  13.7500 Du        
  13715 ****       231.0000  18.2500  14.0000 Du        
  13716 ****       231.0000  18.2500  14.2500 Du        
  13717 ****       231.0000  18.2500  14.5000 Du        
  13718 ****       231.0000  18.5000  12.2500 Du        
  13719 ****       231.0000  18.5000  12.5000 Du        
  13720 ****       231.0000  18.5000  12.7500 Du        
  13721 ****       231.0000  18.5000  13.0000 Du        
  13722 ****       231.0000  18.5000  13.2500 Du        
  13723 ****       231.0000  18.5000  13.5000 Du        
  13724 ****       231.0000  18.5000  13.7500 Du        
  13725 ****       231.0000  18.5000  14.0000 Du        
  13726 ****       231.0000  18.5000  14.2500 Du        
  13727 ****       231.0000  18.7500  12.0000 Du        
  13728 ****       231.0000  18.7500  12.2500 Du        
  13729 ****       231.0000  18.7500  12.5000 Du        
  13730 ****       231.0000  18.7500  12.7500 Du        
  13731 ****       231.0000  18.7500  13.0000 Du        
  13732 ****       231.0000  18.7500  13.2500 Du        
  13733 ****       231.0000  18.7500  13.5000 Du        
  13734 ****       231.0000  18.7500  13.7500 Du        
  13735 ****       231.0000  18.7500  14.0000 Du        
  13736 ****       231.0000  18.7500  14.2500 Du        
  13737 ****       231.0000  19.0000  11.7500 Du        
  13738 ****       231.0000  19.0000  12.0000 Du        
  13739 ****       231.0000  19.0000  12.2500 Du        
  13740 ****       231.0000  19.0000  12.5000 Du        
  13741 ****       231.0000  19.0000  12.7500 Du        
  13742 ****       231.0000  19.0000  13.0000 Du        
  13743 ****       231.0000  19.0000  13.2500 Du        
  13744 ****       231.0000  19.0000  13.5000 Du        
  13745 ****       231.0000  19.0000  13.7500 Du        
  13746 ****       231.0000  19.0000  14.0000 Du        
  13747 ****       231.0000  19.2500  11.7500 Du        
  13748 ****       231.0000  19.2500  12.0000 Du        
  13749 ****       231.0000  19.2500  12.2500 Du        
  13750 ****       231.0000  19.2500  12.5000 Du        
  13751 ****       231.0000  19.2500  12.7500 Du        
  13752 ****       231.0000  19.2500  13.0000 Du        
  13753 ****       231.0000  19.2500  13.2500 Du        
  13754 ****       231.0000  19.2500  13.5000 Du        
  13755 ****       231.0000  19.2500  13.7500 Du        
  13756 ****       231.0000  19.5000  11.5000 Du        
  13757 ****       231.0000  19.5000  11.7500 Du        
  13758 ****       231.0000  19.5000  12.0000 Du        
  13759 ****       231.0000  19.5000  12.2500 Du        
  13760 ****       231.0000  19.5000  12.5000 Du        
  13761 ****       231.0000  19.5000  12.7500 Du        
  13762 ****       231.0000  19.5000  13.0000 Du        
  13763 ****       231.0000  19.5000  13.2500 Du        
  13764 ****       231.0000  19.5000  13.5000 Du        
  13765 ****       231.0000  19.5000  13.7500 Du        
  13766 ****       231.0000  19.7500  11.2500 Du        
  13767 ****       231.0000  19.7500  11.5000 Du        
  13768 ****       231.0000  19.7500  11.7500 Du        
  13769 ****       231.0000  19.7500  12.0000 Du        
  13770 ****       231.0000  19.7500  12.2500 Du        
  13771 ****       231.0000  19.7500  12.5000 Du        
  13772 ****       231.0000  19.7500  12.7500 Du        
  13773 ****       231.0000  19.7500  13.0000 Du        
  13774 ****       231.0000  19.7500  13.2500 Du        
  13775 ****       231.0000  19.7500  13.5000 Du        
  13776 ****       231.0000  20.0000  11.0000 Du        
  13777 ****       231.0000  20.0000  11.2500 Du        
  13778 ****       231.0000  20.0000  11.5000 Du        
  13779 ****       231.0000  20.0000  11.7500 Du        
  13780 ****       231.0000  20.0000  12.0000 Du        
  13781 ****       231.0000  20.0000  12.2500 Du        
  13782 ****       231.0000  20.0000  12.5000 Du        
  13783 ****       231.0000  20.0000  12.7500 Du        
  13784 ****       231.0000  20.0000  13.0000 Du        
  13785 ****       231.0000  20.0000  13.2500 Du        
  13786 ****       231.0000  20.2500  12.0000 Du        
  13787 ****       231.0000  20.2500  12.2500 Du        
  13788 ****       231.0000  20.2500  12.5000 Du        
  13789 ****       231.0000  20.2500  12.7500 Du        
  13790 ****       231.0000  20.2500  13.0000 Du        
  13791 ****       231.0000  26.0000  12.2500 Du        
  13792 ****       231.0000  26.0000  12.5000 Du        
  13793 ****       231.0000  26.0000  12.7500 Du        
  13794 ****       231.0000  26.0000  13.0000 Du        
  13795 ****       231.0000  26.0000  13.2500 Du        
  13796 ****       231.0000  26.0000  13.5000 Du        
  13797 ****       231.0000  26.0000  13.7500 Du        
  13798 ****       231.0000  26.2500  12.2500 Du        
  13799 ****       231.0000  26.2500  12.5000 Du        
  13800 ****       231.0000  26.2500  12.7500 Du        
  13801 ****       231.0000  26.2500  13.0000 Du        
  13802 ****       231.0000  26.2500  13.2500 Du        
  13803 ****       231.0000  26.2500  13.5000 Du        
  13804 ****       231.0000  26.2500  13.7500 Du        
  13805 ****       231.0000  26.5000  12.2500 Du        
  13806 ****       231.0000  26.5000  12.5000 Du        
  13807 ****       231.0000  26.5000  12.7500 Du        
  13808 ****       231.0000  26.5000  13.0000 Du        
  13809 ****       231.0000  26.5000  13.2500 Du        
  13810 ****       231.0000  26.5000  13.5000 Du        
  13811 ****       231.0000  26.5000  13.7500 Du        
  13812 ****       231.0000  26.7500  12.2500 Du        
  13813 ****       231.0000  26.7500  12.5000 Du        
  13814 ****       231.0000  26.7500  12.7500 Du        
  13815 ****       231.0000  26.7500  13.0000 Du        
  13816 ****       231.0000  26.7500  13.2500 Du        
  13817 ****       231.0000  26.7500  13.5000 Du        
  13818 ****       231.0000  26.7500  13.7500 Du        
  13819 ****       231.0000  27.0000  12.2500 Du        
  13820 ****       231.0000  27.0000  12.5000 Du        
  13821 ****       231.0000  27.0000  12.7500 Du        
  13822 ****       231.0000  27.0000  13.0000 Du        
  13823 ****       231.0000  27.0000  13.2500 Du        
  13824 ****       231.0000  27.0000  13.5000 Du        
  13825 ****       231.0000  27.0000  13.7500 Du        
  13826 ****       231.0000  27.2500  12.2500 Du        
  13827 ****       231.0000  27.2500  12.5000 Du        
  13828 ****       231.0000  27.2500  12.7500 Du        
  13829 ****       231.0000  27.2500  13.0000 Du        
  13830 ****       231.0000  27.2500  13.2500 Du        
  13831 ****       231.0000  27.2500  13.5000 Du        
  13832 ****       231.0000  27.5000  12.2500 Du        
  13833 ****       231.0000  27.5000  12.5000 Du        
  13834 ****       231.0000  27.5000  12.7500 Du        
  13835 ****       231.0000  27.5000  13.0000 Du        
  13836 ****       231.0000  27.5000  13.2500 Du        
  13837 ****       231.0000  27.7500  12.2500 Du        
  13838 ****       231.0000  27.7500  12.5000 Du        
  13839 ****       231.0000  27.7500  12.7500 Du        
  13840 ****       231.0000  27.7500  13.0000 Du        
  13841 ****       231.0000  27.7500  13.2500 Du        
  13842 ****       231.0000  28.0000  12.2500 Du        
  13843 ****       231.0000  28.0000  12.5000 Du        
  13844 ****       231.0000  28.0000  12.7500 Du        
  13845 ****       231.0000  28.0000  13.0000 Du        
  13846 ****       231.0000  28.2500  12.5000 Du        
  13847 ****       231.0000  28.2500  12.7500 Du        
  13848 ****       231.0000  28.2500  13.0000 Du        
  13849 ****       231.2500  17.5000  14.0000 Du        
  13850 ****       231.2500  17.5000  14.2500 Du        
  13851 ****       231.2500  17.5000  14.5000 Du        
  13852 ****       231.2500  17.7500  12.7500 Du        
  13853 ****       231.2500  17.7500  13.0000 Du        
  13854 ****       231.2500  17.7500  13.2500 Du        
  13855 ****       231.2500  17.7500  13.5000 Du        
  13856 ****       231.2500  17.7500  13.7500 Du        
  13857 ****       231.2500  17.7500  14.0000 Du        
  13858 ****       231.2500  17.7500  14.2500 Du        
  13859 ****       231.2500  17.7500  14.5000 Du        
  13860 ****       231.2500  17.7500  14.7500 Du        
  13861 ****       231.2500  18.0000  12.5000 Du        
  13862 ****       231.2500  18.0000  12.7500 Du        
  13863 ****       231.2500  18.0000  13.0000 Du        
  13864 ****       231.2500  18.0000  13.2500 Du        
  13865 ****       231.2500  18.0000  13.5000 Du        
  13866 ****       231.2500  18.0000  13.7500 Du        
  13867 ****       231.2500  18.0000  14.0000 Du        
  13868 ****       231.2500  18.0000  14.2500 Du        
  13869 ****       231.2500  18.0000  14.5000 Du        
  13870 ****       231.2500  18.0000  14.7500 Du        
  13871 ****       231.2500  18.2500  12.5000 Du        
  13872 ****       231.2500  18.2500  12.7500 Du        
  13873 ****       231.2500  18.2500  13.0000 Du        
  13874 ****       231.2500  18.2500  13.2500 Du        
  13875 ****       231.2500  18.2500  13.5000 Du        
  13876 ****       231.2500  18.2500  13.7500 Du        
  13877 ****       231.2500  18.2500  14.0000 Du        
  13878 ****       231.2500  18.2500  14.2500 Du        
  13879 ****       231.2500  18.2500  14.5000 Du        
  13880 ****       231.2500  18.5000  12.2500 Du        
  13881 ****       231.2500  18.5000  12.5000 Du        
  13882 ****       231.2500  18.5000  12.7500 Du        
  13883 ****       231.2500  18.5000  13.0000 Du        
  13884 ****       231.2500  18.5000  13.2500 Du        
  13885 ****       231.2500  18.5000  13.5000 Du        
  13886 ****       231.2500  18.5000  13.7500 Du        
  13887 ****       231.2500  18.5000  14.0000 Du        
  13888 ****       231.2500  18.5000  14.2500 Du        
  13889 ****       231.2500  18.7500  12.0000 Du        
  13890 ****       231.2500  18.7500  12.2500 Du        
  13891 ****       231.2500  18.7500  12.5000 Du        
  13892 ****       231.2500  18.7500  12.7500 Du        
  13893 ****       231.2500  18.7500  13.0000 Du        
  13894 ****       231.2500  18.7500  13.2500 Du        
  13895 ****       231.2500  18.7500  13.5000 Du        
  13896 ****       231.2500  18.7500  13.7500 Du        
  13897 ****       231.2500  18.7500  14.0000 Du        
  13898 ****       231.2500  18.7500  14.2500 Du        
  13899 ****       231.2500  19.0000  12.0000 Du        
  13900 ****       231.2500  19.0000  12.2500 Du        
  13901 ****       231.2500  19.0000  12.5000 Du        
  13902 ****       231.2500  19.0000  12.7500 Du        
  13903 ****       231.2500  19.0000  13.0000 Du        
  13904 ****       231.2500  19.0000  13.2500 Du        
  13905 ****       231.2500  19.0000  13.5000 Du        
  13906 ****       231.2500  19.0000  13.7500 Du        
  13907 ****       231.2500  19.0000  14.0000 Du        
  13908 ****       231.2500  19.2500  11.7500 Du        
  13909 ****       231.2500  19.2500  12.0000 Du        
  13910 ****       231.2500  19.2500  12.2500 Du        
  13911 ****       231.2500  19.2500  12.5000 Du        
  13912 ****       231.2500  19.2500  12.7500 Du        
  13913 ****       231.2500  19.2500  13.0000 Du        
  13914 ****       231.2500  19.2500  13.2500 Du        
  13915 ****       231.2500  19.2500  13.5000 Du        
  13916 ****       231.2500  19.2500  13.7500 Du        
  13917 ****       231.2500  19.2500  14.0000 Du        
  13918 ****       231.2500  19.5000  11.7500 Du        
  13919 ****       231.2500  19.5000  12.0000 Du        
  13920 ****       231.2500  19.5000  12.2500 Du        
  13921 ****       231.2500  19.5000  12.5000 Du        
  13922 ****       231.2500  19.5000  12.7500 Du        
  13923 ****       231.2500  19.5000  13.0000 Du        
  13924 ****       231.2500  19.5000  13.2500 Du        
  13925 ****       231.2500  19.5000  13.5000 Du        
  13926 ****       231.2500  19.5000  13.7500 Du        
  13927 ****       231.2500  19.7500  11.7500 Du        
  13928 ****       231.2500  19.7500  12.0000 Du        
  13929 ****       231.2500  19.7500  12.2500 Du        
  13930 ****       231.2500  19.7500  12.5000 Du        
  13931 ****       231.2500  19.7500  12.7500 Du        
  13932 ****       231.2500  19.7500  13.0000 Du        
  13933 ****       231.2500  19.7500  13.2500 Du        
  13934 ****       231.2500  19.7500  13.5000 Du        
  13935 ****       231.2500  20.0000  12.7500 Du        
  13936 ****       231.2500  20.0000  13.0000 Du        
  13937 ****       231.2500  26.0000  12.5000 Du        
  13938 ****       231.2500  26.2500  12.2500 Du        
  13939 ****       231.2500  26.2500  12.5000 Du        
  13940 ****       231.2500  26.2500  12.7500 Du        
  13941 ****       231.2500  26.2500  13.0000 Du        
  13942 ****       231.2500  26.2500  13.2500 Du        
  13943 ****       231.2500  26.2500  13.5000 Du        
  13944 ****       231.2500  26.5000  12.2500 Du        
  13945 ****       231.2500  26.5000  12.5000 Du        
  13946 ****       231.2500  26.5000  12.7500 Du        
  13947 ****       231.2500  26.5000  13.0000 Du        
  13948 ****       231.2500  26.5000  13.2500 Du        
  13949 ****       231.2500  26.5000  13.5000 Du        
  13950 ****       231.2500  26.5000  13.7500 Du        
  13951 ****       231.2500  26.7500  12.0000 Du        
  13952 ****       231.2500  26.7500  12.2500 Du        
  13953 ****       231.2500  26.7500  12.5000 Du        
  13954 ****       231.2500  26.7500  12.7500 Du        
  13955 ****       231.2500  26.7500  13.0000 Du        
  13956 ****       231.2500  26.7500  13.2500 Du        
  13957 ****       231.2500  26.7500  13.5000 Du        
  13958 ****       231.2500  26.7500  13.7500 Du        
  13959 ****       231.2500  27.0000  12.0000 Du        
  13960 ****       231.2500  27.0000  12.2500 Du        
  13961 ****       231.2500  27.0000  12.5000 Du        
  13962 ****       231.2500  27.0000  12.7500 Du        
  13963 ****       231.2500  27.0000  13.0000 Du        
  13964 ****       231.2500  27.0000  13.2500 Du        
  13965 ****       231.2500  27.0000  13.5000 Du        
  13966 ****       231.2500  27.2500  12.2500 Du        
  13967 ****       231.2500  27.2500  12.5000 Du        
  13968 ****       231.2500  27.2500  12.7500 Du        
  13969 ****       231.2500  27.2500  13.0000 Du        
  13970 ****       231.2500  27.2500  13.2500 Du        
  13971 ****       231.2500  27.2500  13.5000 Du        
  13972 ****       231.2500  27.5000  12.2500 Du        
  13973 ****       231.2500  27.5000  12.5000 Du        
  13974 ****       231.2500  27.5000  12.7500 Du        
  13975 ****       231.2500  27.5000  13.0000 Du        
  13976 ****       231.2500  27.5000  13.2500 Du        
  13977 ****       231.2500  27.7500  12.2500 Du        
  13978 ****       231.2500  27.7500  12.5000 Du        
  13979 ****       231.2500  27.7500  12.7500 Du        
  13980 ****       231.2500  27.7500  13.0000 Du        
  13981 ****       231.2500  27.7500  13.2500 Du        
  13982 ****       231.2500  28.0000  12.5000 Du        
  13983 ****       231.2500  28.0000  12.7500 Du        
  13984 ****       231.2500  28.0000  13.0000 Du        
  13985 ****       231.2500  28.2500  12.7500 Du        
  13986 ****       231.5000  17.7500  14.0000 Du        
  13987 ****       231.5000  17.7500  14.2500 Du        
  13988 ****       231.5000  18.0000  12.7500 Du        
  13989 ****       231.5000  18.0000  13.0000 Du        
  13990 ****       231.5000  18.0000  13.2500 Du        
  13991 ****       231.5000  18.0000  13.5000 Du        
  13992 ****       231.5000  18.0000  13.7500 Du        
  13993 ****       231.5000  18.0000  14.0000 Du        
  13994 ****       231.5000  18.0000  14.2500 Du        
  13995 ****       231.5000  18.0000  14.5000 Du        
  13996 ****       231.5000  18.0000  14.7500 Du        
  13997 ****       231.5000  18.2500  12.5000 Du        
  13998 ****       231.5000  18.2500  12.7500 Du        
  13999 ****       231.5000  18.2500  13.0000 Du        
  14000 ****       231.5000  18.2500  13.2500 Du        
  14001 ****       231.5000  18.2500  13.5000 Du        
  14002 ****       231.5000  18.2500  13.7500 Du        
  14003 ****       231.5000  18.2500  14.0000 Du        
  14004 ****       231.5000  18.2500  14.2500 Du        
  14005 ****       231.5000  18.2500  14.5000 Du        
  14006 ****       231.5000  18.5000  12.2500 Du        
  14007 ****       231.5000  18.5000  12.5000 Du        
  14008 ****       231.5000  18.5000  12.7500 Du        
  14009 ****       231.5000  18.5000  13.0000 Du        
  14010 ****       231.5000  18.5000  13.2500 Du        
  14011 ****       231.5000  18.5000  13.5000 Du        
  14012 ****       231.5000  18.5000  13.7500 Du        
  14013 ****       231.5000  18.5000  14.0000 Du        
  14014 ****       231.5000  18.5000  14.2500 Du        
  14015 ****       231.5000  18.5000  14.5000 Du        
  14016 ****       231.5000  18.7500  12.0000 Du        
  14017 ****       231.5000  18.7500  12.2500 Du        
  14018 ****       231.5000  18.7500  12.5000 Du        
  14019 ****       231.5000  18.7500  12.7500 Du        
  14020 ****       231.5000  18.7500  13.0000 Du        
  14021 ****       231.5000  18.7500  13.2500 Du        
  14022 ****       231.5000  18.7500  13.5000 Du        
  14023 ****       231.5000  18.7500  13.7500 Du        
  14024 ****       231.5000  18.7500  14.0000 Du        
  14025 ****       231.5000  18.7500  14.2500 Du        
  14026 ****       231.5000  19.0000  12.0000 Du        
  14027 ****       231.5000  19.0000  12.2500 Du        
  14028 ****       231.5000  19.0000  12.5000 Du        
  14029 ****       231.5000  19.0000  12.7500 Du        
  14030 ****       231.5000  19.0000  13.0000 Du        
  14031 ****       231.5000  19.0000  13.2500 Du        
  14032 ****       231.5000  19.0000  13.5000 Du        
  14033 ****       231.5000  19.0000  13.7500 Du        
  14034 ****       231.5000  19.0000  14.0000 Du        
  14035 ****       231.5000  19.0000  14.2500 Du        
  14036 ****       231.5000  19.2500  12.0000 Du        
  14037 ****       231.5000  19.2500  12.2500 Du        
  14038 ****       231.5000  19.2500  12.5000 Du        
  14039 ****       231.5000  19.2500  12.7500 Du        
  14040 ****       231.5000  19.2500  13.0000 Du        
  14041 ****       231.5000  19.2500  13.2500 Du        
  14042 ****       231.5000  19.2500  13.5000 Du        
  14043 ****       231.5000  19.2500  13.7500 Du        
  14044 ****       231.5000  19.2500  14.0000 Du        
  14045 ****       231.5000  19.5000  12.0000 Du        
  14046 ****       231.5000  19.5000  12.2500 Du        
  14047 ****       231.5000  19.5000  12.5000 Du        
  14048 ****       231.5000  19.5000  12.7500 Du        
  14049 ****       231.5000  19.5000  13.0000 Du        
  14050 ****       231.5000  19.5000  13.2500 Du        
  14051 ****       231.5000  19.5000  13.5000 Du        
  14052 ****       231.5000  19.5000  13.7500 Du        
  14053 ****       231.5000  19.7500  12.7500 Du        
  14054 ****       231.5000  19.7500  13.0000 Du        
  14055 ****       231.5000  19.7500  13.2500 Du        
  14056 ****       231.5000  19.7500  13.5000 Du        
  14057 ****       231.5000  26.2500  12.0000 Du        
  14058 ****       231.5000  26.2500  12.2500 Du        
  14059 ****       231.5000  26.2500  12.5000 Du        
  14060 ****       231.5000  26.2500  12.7500 Du        
  14061 ****       231.5000  26.2500  13.0000 Du        
  14062 ****       231.5000  26.5000  12.0000 Du        
  14063 ****       231.5000  26.5000  12.2500 Du        
  14064 ****       231.5000  26.5000  12.5000 Du        
  14065 ****       231.5000  26.5000  12.7500 Du        
  14066 ****       231.5000  26.5000  13.0000 Du        
  14067 ****       231.5000  26.5000  13.2500 Du        
  14068 ****       231.5000  26.5000  13.5000 Du        
  14069 ****       231.5000  26.7500  12.0000 Du        
  14070 ****       231.5000  26.7500  12.2500 Du        
  14071 ****       231.5000  26.7500  12.5000 Du        
  14072 ****       231.5000  26.7500  12.7500 Du        
  14073 ****       231.5000  26.7500  13.0000 Du        
  14074 ****       231.5000  26.7500  13.2500 Du        
  14075 ****       231.5000  26.7500  13.5000 Du        
  14076 ****       231.5000  27.0000  12.0000 Du        
  14077 ****       231.5000  27.0000  12.2500 Du        
  14078 ****       231.5000  27.0000  12.5000 Du        
  14079 ****       231.5000  27.0000  12.7500 Du        
  14080 ****       231.5000  27.0000  13.0000 Du        
  14081 ****       231.5000  27.0000  13.2500 Du        
  14082 ****       231.5000  27.0000  13.5000 Du        
  14083 ****       231.5000  27.2500  12.2500 Du        
  14084 ****       231.5000  27.2500  12.5000 Du        
  14085 ****       231.5000  27.2500  12.7500 Du        
  14086 ****       231.5000  27.2500  13.0000 Du        
  14087 ****       231.5000  27.2500  13.2500 Du        
  14088 ****       231.5000  27.5000  12.2500 Du        
  14089 ****       231.5000  27.5000  12.5000 Du        
  14090 ****       231.5000  27.5000  12.7500 Du        
  14091 ****       231.5000  27.5000  13.0000 Du        
  14092 ****       231.5000  27.5000  13.2500 Du        
  14093 ****       231.5000  27.7500  12.5000 Du        
  14094 ****       231.5000  27.7500  12.7500 Du        
  14095 ****       231.5000  27.7500  13.0000 Du        
  14096 ****       231.7500  18.2500  13.0000 Du        
  14097 ****       231.7500  18.2500  13.2500 Du        
  14098 ****       231.7500  18.2500  13.5000 Du        
  14099 ****       231.7500  18.2500  13.7500 Du        
  14100 ****       231.7500  18.2500  14.0000 Du        
  14101 ****       231.7500  18.2500  14.2500 Du        
  14102 ****       231.7500  18.2500  14.5000 Du        
  14103 ****       231.7500  18.5000  12.5000 Du        
  14104 ****       231.7500  18.5000  12.7500 Du        
  14105 ****       231.7500  18.5000  13.0000 Du        
  14106 ****       231.7500  18.5000  13.2500 Du        
  14107 ****       231.7500  18.5000  13.5000 Du        
  14108 ****       231.7500  18.5000  13.7500 Du        
  14109 ****       231.7500  18.5000  14.0000 Du        
  14110 ****       231.7500  18.5000  14.2500 Du        
  14111 ****       231.7500  18.5000  14.5000 Du        
  14112 ****       231.7500  18.7500  12.2500 Du        
  14113 ****       231.7500  18.7500  12.5000 Du        
  14114 ****       231.7500  18.7500  12.7500 Du        
  14115 ****       231.7500  18.7500  13.0000 Du        
  14116 ****       231.7500  18.7500  13.2500 Du        
  14117 ****       231.7500  18.7500  13.5000 Du        
  14118 ****       231.7500  18.7500  13.7500 Du        
  14119 ****       231.7500  18.7500  14.0000 Du        
  14120 ****       231.7500  18.7500  14.2500 Du        
  14121 ****       231.7500  19.0000  12.2500 Du        
  14122 ****       231.7500  19.0000  12.5000 Du        
  14123 ****       231.7500  19.0000  12.7500 Du        
  14124 ****       231.7500  19.0000  13.0000 Du        
  14125 ****       231.7500  19.0000  13.2500 Du        
  14126 ****       231.7500  19.0000  13.5000 Du        
  14127 ****       231.7500  19.0000  13.7500 Du        
  14128 ****       231.7500  19.0000  14.0000 Du        
  14129 ****       231.7500  19.0000  14.2500 Du        
  14130 ****       231.7500  19.2500  12.2500 Du        
  14131 ****       231.7500  19.2500  12.5000 Du        
  14132 ****       231.7500  19.2500  12.7500 Du        
  14133 ****       231.7500  19.2500  13.0000 Du        
  14134 ****       231.7500  19.2500  13.2500 Du        
  14135 ****       231.7500  19.2500  13.5000 Du        
  14136 ****       231.7500  19.2500  13.7500 Du        
  14137 ****       231.7500  19.2500  14.0000 Du        
  14138 ****       231.7500  19.5000  13.0000 Du        
  14139 ****       231.7500  19.5000  13.2500 Du        
  14140 ****       231.7500  19.5000  13.5000 Du        
  14141 ****       231.7500  19.5000  13.7500 Du        
  14142 ****       231.7500  26.5000  12.0000 Du        
  14143 ****       231.7500  26.5000  12.2500 Du        
  14144 ****       231.7500  26.5000  12.5000 Du        
  14145 ****       231.7500  26.5000  12.7500 Du        
  14146 ****       231.7500  26.5000  13.0000 Du        
  14147 ****       231.7500  26.5000  13.2500 Du        
  14148 ****       231.7500  26.7500  12.0000 Du        
  14149 ****       231.7500  26.7500  12.2500 Du        
  14150 ****       231.7500  26.7500  12.5000 Du        
  14151 ****       231.7500  26.7500  12.7500 Du        
  14152 ****       231.7500  26.7500  13.0000 Du        
  14153 ****       231.7500  26.7500  13.2500 Du        
  14154 ****       231.7500  26.7500  13.5000 Du        
  14155 ****       231.7500  27.0000  12.2500 Du        
  14156 ****       231.7500  27.0000  12.5000 Du        
  14157 ****       231.7500  27.0000  12.7500 Du        
  14158 ****       231.7500  27.0000  13.0000 Du        
  14159 ****       231.7500  27.0000  13.2500 Du        
  14160 ****       231.7500  27.2500  12.2500 Du        
  14161 ****       231.7500  27.2500  12.5000 Du        
  14162 ****       231.7500  27.2500  12.7500 Du        
  14163 ****       231.7500  27.2500  13.0000 Du        
  14164 ****       231.7500  27.2500  13.2500 Du        
  14165 ****       231.7500  27.5000  12.7500 Du        
  14166 ****       231.7500  27.5000  13.0000 Du        
  14167 ****       232.0000  18.5000  13.5000 Du        
  14168 ****       232.0000  18.5000  13.7500 Du        
  14169 ****       232.0000  18.5000  14.0000 Du        
  14170 ****       232.0000  18.5000  14.2500 Du        
  14171 ****       232.0000  18.7500  12.7500 Du        
  14172 ****       232.0000  18.7500  13.0000 Du        
  14173 ****       232.0000  18.7500  13.2500 Du        
  14174 ****       232.0000  18.7500  13.5000 Du        
  14175 ****       232.0000  18.7500  13.7500 Du        
  14176 ****       232.0000  18.7500  14.0000 Du        
  14177 ****       232.0000  18.7500  14.2500 Du        
  14178 ****       232.0000  18.7500  14.5000 Du        
  14179 ****       232.0000  19.0000  12.7500 Du        
  14180 ****       232.0000  19.0000  13.0000 Du        
  14181 ****       232.0000  19.0000  13.2500 Du        
  14182 ****       232.0000  19.0000  13.5000 Du        
  14183 ****       232.0000  19.0000  13.7500 Du        
  14184 ****       232.0000  19.0000  14.0000 Du        
  14185 ****       232.0000  19.0000  14.2500 Du        
  14186 ****       232.0000  19.2500  13.2500 Du        
  14187 ****       232.0000  19.2500  13.5000 Du        
  14188 ****       232.0000  19.2500  13.7500 Du        
  14189 ****       232.0000  19.2500  14.0000 Du        
  14190 ****       232.0000  26.7500  12.5000 Du        
  14191 ****       232.0000  26.7500  12.7500 Du        
  14192 ****       232.0000  26.7500  13.0000 Du        
  14193 ****       232.0000  26.7500  13.2500 Du        
  14194 ****       232.0000  27.0000  12.5000 Du        
  14195 ****       232.0000  27.0000  12.7500 Du        
  14196 ****       232.0000  27.0000  13.0000 Du        
  14197 ****       232.0000  27.0000  13.2500 Du        
  14198 ****       232.0000  27.2500  12.7500 Du        
  14199 ****       232.0000  27.2500  13.0000 Du        
  14200 ****       232.2500  18.7500  13.7500 Du        
  14201 ****       232.2500  18.7500  14.0000 Du        
  14202 ****       232.2500  18.7500  14.2500 Du        
  14203 ****       232.2500  19.0000  13.7500 Du        
  14204 ****       232.2500  19.0000  14.0000 Du        
  14205 ****       232.2500  19.0000  14.2500 Du        
  14206 ****       233.7500  19.2500  15.7500 Du        
  14207 ****       233.7500  19.2500  16.0000 Du        
  14208 ****       233.7500  19.2500  16.2500 Du        
  14209 ****       233.7500  19.2500  16.5000 Du        
  14210 ****       233.7500  19.5000  15.7500 Du        
  14211 ****       233.7500  19.5000  16.0000 Du        
  14212 ****       233.7500  19.5000  16.2500 Du        
  14213 ****       233.7500  19.5000  16.5000 Du        
  14214 ****       233.7500  19.7500  16.0000 Du        
  14215 ****       233.7500  19.7500  16.2500 Du        
  14216 ****       234.0000  19.0000  16.2500 Du        
  14217 ****       234.0000  19.0000  16.5000 Du        
  14218 ****       234.0000  19.0000  16.7500 Du        
  14219 ****       234.0000  19.0000  17.0000 Du        
  14220 ****       234.0000  19.2500  15.7500 Du        
  14221 ****       234.0000  19.2500  16.0000 Du        
  14222 ****       234.0000  19.2500  16.2500 Du        
  14223 ****       234.0000  19.2500  16.5000 Du        
  14224 ****       234.0000  19.2500  16.7500 Du        
  14225 ****       234.0000  19.2500  17.0000 Du        
  14226 ****       234.0000  19.5000  15.7500 Du        
  14227 ****       234.0000  19.5000  16.0000 Du        
  14228 ****       234.0000  19.5000  16.2500 Du        
  14229 ****       234.0000  19.5000  16.5000 Du        
  14230 ****       234.0000  19.5000  16.7500 Du        
  14231 ****       234.0000  19.7500  15.7500 Du        
  14232 ****       234.0000  19.7500  16.0000 Du        
  14233 ****       234.0000  19.7500  16.2500 Du        
  14234 ****       234.0000  19.7500  16.5000 Du        
  14235 ****       234.0000  19.7500  16.7500 Du        
  14236 ****       234.0000  20.0000  16.0000 Du        
  14237 ****       234.0000  20.0000  16.2500 Du        
  14238 ****       234.0000  20.0000  16.5000 Du        
  14239 ****       234.0000  20.0000  16.7500 Du        
  14240 ****       234.0000  20.2500  16.2500 Du        
  14241 ****       234.0000  20.2500  16.5000 Du        
  14242 ****       234.2500  18.7500  17.0000 Du        
  14243 ****       234.2500  18.7500  17.2500 Du        
  14244 ****       234.2500  19.0000  16.2500 Du        
  14245 ****       234.2500  19.0000  16.5000 Du        
  14246 ****       234.2500  19.0000  16.7500 Du        
  14247 ****       234.2500  19.0000  17.0000 Du        
  14248 ****       234.2500  19.0000  17.2500 Du        
  14249 ****       234.2500  19.2500  15.7500 Du        
  14250 ****       234.2500  19.2500  16.0000 Du        
  14251 ****       234.2500  19.2500  16.2500 Du        
  14252 ****       234.2500  19.2500  16.5000 Du        
  14253 ****       234.2500  19.2500  16.7500 Du        
  14254 ****       234.2500  19.2500  17.0000 Du        
  14255 ****       234.2500  19.2500  17.2500 Du        
  14256 ****       234.2500  19.5000  15.7500 Du        
  14257 ****       234.2500  19.5000  16.0000 Du        
  14258 ****       234.2500  19.5000  16.2500 Du        
  14259 ****       234.2500  19.5000  16.5000 Du        
  14260 ****       234.2500  19.5000  16.7500 Du        
  14261 ****       234.2500  19.5000  17.0000 Du        
  14262 ****       234.2500  19.5000  17.2500 Du        
  14263 ****       234.2500  19.7500  15.7500 Du        
  14264 ****       234.2500  19.7500  16.0000 Du        
  14265 ****       234.2500  19.7500  16.2500 Du        
  14266 ****       234.2500  19.7500  16.5000 Du        
  14267 ****       234.2500  19.7500  16.7500 Du        
  14268 ****       234.2500  19.7500  17.0000 Du        
  14269 ****       234.2500  20.0000  15.7500 Du        
  14270 ****       234.2500  20.0000  16.0000 Du        
  14271 ****       234.2500  20.0000  16.2500 Du        
  14272 ****       234.2500  20.0000  16.5000 Du        
  14273 ****       234.2500  20.0000  16.7500 Du        
  14274 ****       234.2500  20.0000  17.0000 Du        
  14275 ****       234.2500  20.2500  16.0000 Du        
  14276 ****       234.2500  20.2500  16.2500 Du        
  14277 ****       234.2500  20.2500  16.5000 Du        
  14278 ****       234.2500  20.2500  16.7500 Du        
  14279 ****       234.2500  20.2500  17.0000 Du        
  14280 ****       234.2500  20.5000  16.2500 Du        
  14281 ****       234.2500  20.5000  16.5000 Du        
  14282 ****       234.2500  20.5000  16.7500 Du        
  14283 ****       234.2500  20.5000  17.0000 Du        
  14284 ****       234.2500  20.7500  16.5000 Du        
  14285 ****       234.2500  20.7500  16.7500 Du        
  14286 ****       234.5000  18.7500  17.2500 Du        
  14287 ****       234.5000  19.0000  16.5000 Du        
  14288 ****       234.5000  19.0000  16.7500 Du        
  14289 ****       234.5000  19.0000  17.0000 Du        
  14290 ****       234.5000  19.0000  17.2500 Du        
  14291 ****       234.5000  19.2500  15.7500 Du        
  14292 ****       234.5000  19.2500  16.0000 Du        
  14293 ****       234.5000  19.2500  16.2500 Du        
  14294 ****       234.5000  19.2500  16.5000 Du        
  14295 ****       234.5000  19.2500  16.7500 Du        
  14296 ****       234.5000  19.2500  17.0000 Du        
  14297 ****       234.5000  19.2500  17.2500 Du        
  14298 ****       234.5000  19.5000  15.7500 Du        
  14299 ****       234.5000  19.5000  16.0000 Du        
  14300 ****       234.5000  19.5000  16.2500 Du        
  14301 ****       234.5000  19.5000  16.5000 Du        
  14302 ****       234.5000  19.5000  16.7500 Du        
  14303 ****       234.5000  19.5000  17.0000 Du        
  14304 ****       234.5000  19.5000  17.2500 Du        
  14305 ****       234.5000  19.7500  15.7500 Du        
  14306 ****       234.5000  19.7500  16.0000 Du        
  14307 ****       234.5000  19.7500  16.2500 Du        
  14308 ****       234.5000  19.7500  16.5000 Du        
  14309 ****       234.5000  19.7500  16.7500 Du        
  14310 ****       234.5000  19.7500  17.0000 Du        
  14311 ****       234.5000  19.7500  17.2500 Du        
  14312 ****       234.5000  20.0000  15.7500 Du        
  14313 ****       234.5000  20.0000  16.0000 Du        
  14314 ****       234.5000  20.0000  16.2500 Du        
  14315 ****       234.5000  20.0000  16.5000 Du        
  14316 ****       234.5000  20.0000  16.7500 Du        
  14317 ****       234.5000  20.0000  17.0000 Du        
  14318 ****       234.5000  20.0000  17.2500 Du        
  14319 ****       234.5000  20.2500  16.0000 Du        
  14320 ****       234.5000  20.2500  16.2500 Du        
  14321 ****       234.5000  20.2500  16.5000 Du        
  14322 ****       234.5000  20.2500  16.7500 Du        
  14323 ****       234.5000  20.2500  17.0000 Du        
  14324 ****       234.5000  20.2500  17.2500 Du        
  14325 ****       234.5000  20.5000  16.0000 Du        
  14326 ****       234.5000  20.5000  16.2500 Du        
  14327 ****       234.5000  20.5000  16.5000 Du        
  14328 ****       234.5000  20.5000  16.7500 Du        
  14329 ****       234.5000  20.5000  17.0000 Du        
  14330 ****       234.5000  20.5000  17.2500 Du        
  14331 ****       234.5000  20.7500  16.2500 Du        
  14332 ****       234.5000  20.7500  16.5000 Du        
  14333 ****       234.5000  20.7500  16.7500 Du        
  14334 ****       234.5000  20.7500  17.0000 Du        
  14335 ****       234.5000  20.7500  17.2500 Du        
  14336 ****       234.5000  21.0000  16.5000 Du        
  14337 ****       234.5000  21.0000  16.7500 Du        
  14338 ****       234.5000  21.0000  17.0000 Du        
  14339 ****       234.7500  19.2500  16.0000 Du        
  14340 ****       234.7500  19.2500  16.2500 Du        
  14341 ****       234.7500  19.2500  16.5000 Du        
  14342 ****       234.7500  19.2500  16.7500 Du        
  14343 ****       234.7500  19.2500  17.0000 Du        
  14344 ****       234.7500  19.5000  15.7500 Du        
  14345 ****       234.7500  19.5000  16.0000 Du        
  14346 ****       234.7500  19.5000  16.2500 Du        
  14347 ****       234.7500  19.5000  16.5000 Du        
  14348 ****       234.7500  19.5000  16.7500 Du        
  14349 ****       234.7500  19.5000  17.0000 Du        
  14350 ****       234.7500  19.5000  17.2500 Du        
  14351 ****       234.7500  19.7500  15.5000 Du        
  14352 ****       234.7500  19.7500  15.7500 Du        
  14353 ****       234.7500  19.7500  16.0000 Du        
  14354 ****       234.7500  19.7500  16.2500 Du        
  14355 ****       234.7500  19.7500  16.5000 Du        
  14356 ****       234.7500  19.7500  16.7500 Du        
  14357 ****       234.7500  19.7500  17.0000 Du        
  14358 ****       234.7500  19.7500  17.2500 Du        
  14359 ****       234.7500  20.0000  15.7500 Du        
  14360 ****       234.7500  20.0000  16.0000 Du        
  14361 ****       234.7500  20.0000  16.2500 Du        
  14362 ****       234.7500  20.0000  16.5000 Du        
  14363 ****       234.7500  20.0000  16.7500 Du        
  14364 ****       234.7500  20.0000  17.0000 Du        
  14365 ****       234.7500  20.0000  17.2500 Du        
  14366 ****       234.7500  20.2500  15.7500 Du        
  14367 ****       234.7500  20.2500  16.0000 Du        
  14368 ****       234.7500  20.2500  16.2500 Du        
  14369 ****       234.7500  20.2500  16.5000 Du        
  14370 ****       234.7500  20.2500  16.7500 Du        
  14371 ****       234.7500  20.2500  17.0000 Du        
  14372 ****       234.7500  20.2500  17.2500 Du        
  14373 ****       234.7500  20.5000  16.0000 Du        
  14374 ****       234.7500  20.5000  16.2500 Du        
  14375 ****       234.7500  20.5000  16.5000 Du        
  14376 ****       234.7500  20.5000  16.7500 Du        
  14377 ****       234.7500  20.5000  17.0000 Du        
  14378 ****       234.7500  20.5000  17.2500 Du        
  14379 ****       234.7500  20.7500  16.2500 Du        
  14380 ****       234.7500  20.7500  16.5000 Du        
  14381 ****       234.7500  20.7500  16.7500 Du        
  14382 ****       234.7500  20.7500  17.0000 Du        
  14383 ****       234.7500  20.7500  17.2500 Du        
  14384 ****       234.7500  21.0000  16.5000 Du        
  14385 ****       234.7500  21.0000  16.7500 Du        
  14386 ****       234.7500  21.0000  17.0000 Du        
  14387 ****       234.7500  21.0000  17.2500 Du        
  14388 ****       235.0000  19.5000  15.7500 Du        
  14389 ****       235.0000  19.5000  16.0000 Du        
  14390 ****       235.0000  19.5000  16.2500 Du        
  14391 ****       235.0000  19.5000  16.5000 Du        
  14392 ****       235.0000  19.7500  15.7500 Du        
  14393 ****       235.0000  19.7500  16.0000 Du        
  14394 ****       235.0000  19.7500  16.2500 Du        
  14395 ****       235.0000  19.7500  16.5000 Du        
  14396 ****       235.0000  19.7500  16.7500 Du        
  14397 ****       235.0000  19.7500  17.0000 Du        
  14398 ****       235.0000  20.0000  15.7500 Du        
  14399 ****       235.0000  20.0000  16.0000 Du        
  14400 ****       235.0000  20.0000  16.2500 Du        
  14401 ****       235.0000  20.0000  16.5000 Du        
  14402 ****       235.0000  20.0000  16.7500 Du        
  14403 ****       235.0000  20.0000  17.0000 Du        
  14404 ****       235.0000  20.0000  17.2500 Du        
  14405 ****       235.0000  20.2500  15.7500 Du        
  14406 ****       235.0000  20.2500  16.0000 Du        
  14407 ****       235.0000  20.2500  16.2500 Du        
  14408 ****       235.0000  20.2500  16.5000 Du        
  14409 ****       235.0000  20.2500  16.7500 Du        
  14410 ****       235.0000  20.2500  17.0000 Du        
  14411 ****       235.0000  20.2500  17.2500 Du        
  14412 ****       235.0000  20.5000  16.0000 Du        
  14413 ****       235.0000  20.5000  16.2500 Du        
  14414 ****       235.0000  20.5000  16.5000 Du        
  14415 ****       235.0000  20.5000  16.7500 Du        
  14416 ****       235.0000  20.5000  17.0000 Du        
  14417 ****       235.0000  20.5000  17.2500 Du        
  14418 ****       235.0000  20.7500  16.0000 Du        
  14419 ****       235.0000  20.7500  16.2500 Du        
  14420 ****       235.0000  20.7500  16.5000 Du        
  14421 ****       235.0000  20.7500  16.7500 Du        
  14422 ****       235.0000  20.7500  17.0000 Du        
  14423 ****       235.0000  20.7500  17.2500 Du        
  14424 ****       235.0000  21.0000  16.2500 Du        
  14425 ****       235.0000  21.0000  16.5000 Du        
  14426 ****       235.0000  21.0000  16.7500 Du        
  14427 ****       235.0000  21.0000  17.0000 Du        
  14428 ****       235.0000  21.0000  17.2500 Du        
  14429 ****       235.0000  21.2500  17.0000 Du        
  14430 ****       235.0000  21.2500  17.2500 Du        
