#       Name:                CT1002167954
#       Creating user name   hitesit
#       Creation time:       Sun Apr 16 22:59:53 2023


#       File generated by GOLD software.
#

@<TRIPOS>MOLECULE
CT1002167954|ligand_prepared|mol2|1|dock8
    29    30     1
SMALL
NO_CHARGES


@<TRIPOS>ATOM
      1 C1         227.0172  21.7406  13.7144 C.3            1 RES1               0.0000
      2 C2         227.7422  23.0992  13.8000 C.ar           1 RES1               0.0000
      3 C3         226.5004  21.4415  15.1185 C.2            1 RES1               0.0000
      4 C4         225.9191  21.9081  12.6699 C.2            1 RES1               0.0000
      5 C5         227.9279  20.5735  13.2672 C.3            1 RES1               0.0000
      6 C6         228.6271  23.4944  12.8013 C.ar           1 RES1               0.0000
      7 C7         227.5347  23.9677  14.8683 C.ar           1 RES1               0.0000
      8 N8         225.1611  21.5726  15.3402 N.am           1 RES1               0.0000
      9 O9         227.2615  21.1336  16.0274 O.2            1 RES1               0.0000
     10 N10        224.6169  21.8297  13.0891 N.am           1 RES1               0.0000
     11 O11        226.1698  22.1239  11.4905 O.2            1 RES1               0.0000
     12 C12        227.3154  19.1991  13.4864 C.3            1 RES1               0.0000
     13 C13        229.2787  24.7148  12.8666 C.ar           1 RES1               0.0000
     14 C14        228.1875  25.1876  14.9318 C.ar           1 RES1               0.0000
     15 C15        224.1879  21.7001  14.3819 C.2            1 RES1               0.0000
     16 C16        229.0591  25.5623  13.9315 C.ar           1 RES1               0.0000
     17 O17        222.9986  21.6921  14.6861 O.2            1 RES1               0.0000
     18 H18        228.1562  20.6924  12.2008 H              1 RES1               0.0000
     19 H19        228.8732  20.6311  13.8208 H              1 RES1               0.0000
     20 H20        228.8144  22.8396  11.9568 H              1 RES1               0.0000
     21 H21        226.8542  23.6933  15.6673 H              1 RES1               0.0000
     22 H22        224.8549  21.5764  16.3079 H              1 RES1               0.0000
     23 H23        223.9009  21.8716  12.3708 H              1 RES1               0.0000
     24 H24        227.9953  18.4167  13.1559 H              1 RES1               0.0000
     25 H25        227.0988  19.0370  14.5402 H              1 RES1               0.0000
     26 H26        226.3860  19.0978  12.9298 H              1 RES1               0.0000
     27 H27        229.9647  25.0045  12.0774 H              1 RES1               0.0000
     28 H28        228.0121  25.8512  15.7721 H              1 RES1               0.0000
     29 H29        229.5694  26.5185  13.9822 H              1 RES1               0.0000
@<TRIPOS>BOND
    1    1    2 1     
    2    1    3 1     
    3    1    4 1     
    4    1    5 1     
    5    2    6 ar    
    6    2    7 ar    
    7    3    8 1     
    8    3    9 2     
    9    4   10 1     
   10    4   11 2     
   11    5   12 1     
   12    5   18 1     
   13    5   19 1     
   14    6   13 ar    
   15    6   20 1     
   16    7   14 ar    
   17    7   21 1     
   18    8   15 1     
   19    8   22 1     
   20   10   15 1     
   21   10   23 1     
   22   12   24 1     
   23   12   25 1     
   24   12   26 1     
   25   13   16 ar    
   26   13   27 1     
   27   14   16 ar    
   28   14   28 1     
   29   15   17 2     
   30   16   29 1     
@<TRIPOS>SUBSTRUCTURE
      1 RES1           1
@<TRIPOS>SET
DONOR_HYDROGENS      STATIC     ATOMS    <user>   **** ""
2 22 23
ATOM$RED        STATIC     ATOMS    COLORGROUP SYSTEM
2 22 23
@<TRIPOS>COMMENT
> <Gold.Version>
2022.3.0

> <Gold.Id.Protein>
unknown|4v3u_clean|pdb

> <Gold.Protein.RotatedTorsions>
[  594  544  543  542 ] final -172.71 input   59.98 | X-H torsion
[  739  695  696  697 ] final   48.37 input   98.51 | X-H torsion
[ 2556 2523 2524 2525 ] final -156.32 input  111.11 | X-H torsion
[ 2627 2595 2596 2597 ] final   44.82 input   53.40 | X-H torsion
[ 26082 26043 26042 26040 ] final   26.66 input   60.02 | X-H torsion
[ 27179 27119 27118 27114 ] final  -94.62 input   60.01 | X-H torsion
[ 7426 7411 7412 7413 ] final  103.62 input   83.97 | X-H torsion
[ 7476 7453 7454 7455 ] final   41.32 input   94.79 | X-H torsion
[ 7522 7511 7512 7513 ] final   56.36 input   85.82 | X-H torsion
[ 17193 17173 17174 17175 ] final  -68.84 input   42.33 | X-H torsion
[ 17249 17217 17218 17219 ] final  179.37 input  107.71 | X-H torsion
[ 18293 18271 18272 18273 ] final  159.65 input   26.15 | X-H torsion
[ 18325 18311 18312 18313 ] final   70.78 input   53.27 | X-H torsion
[ 18407 18359 18360 18361 ] final  -19.58 input   33.85 | X-H torsion
[ 18493 18451 18452 18453 ] final  -89.27 input  113.35 | X-H torsion
[ 18561 18527 18528 18529 ] final   11.46 input   85.91 | X-H torsion
[ 18501 18462 18461 18459 ] final   80.88 input   59.98 | X-H torsion
[ 18241 18201 18202 18203 ] final  177.94 input   44.19 | X-H torsion
[ 18297 18276 18275 18272 ] final  -48.08 input   59.98 | X-H torsion
[ 10099 10092 10091 10088 ] final  124.70 input   59.98 | X-H torsion
[ 17301 17279 17280 17281 ] final  157.62 input   44.55 | X-H torsion
[ 16993 16954 16953 16951 ] final  -47.48 input   59.99 | X-H torsion
[ 11475 11457 11458 11459 ] final  -33.20 input   48.15 | X-H torsion
[ 11539 11523 11524 11525 ] final   -3.36 input  117.79 | X-H torsion
[ 11615 11599 11600 11601 ] final   -3.30 input   58.98 | X-H torsion
[ 11423 11412 11411 11408 ] final  -22.79 input   60.01 | X-H torsion
[ 27181 27121 27120 27118 ] final    6.31 input   60.02 | X-H torsion
[ 10139 10129 10130 10131 ] final -158.14 input   28.23 | X-H torsion
[ 17356 17327 17328 17329 ] final  129.09 input   73.50 | X-H torsion
[ 27201  698  697  696 ] final -139.93 input    0.00 | X-H torsion
[ 27204 2526 2525 2524 ] final   48.86 input    0.00 | X-H torsion
[ 27228 7328 7327 7326 ] final -144.99 input    0.00 | X-H torsion
[ 27233 7514 7513 7512 ] final  159.56 input    0.00 | X-H torsion
[ 27236 17124 17123 17122 ] final  -13.40 input    0.00 | X-H torsion
[ 27240 18204 18203 18202 ] final -156.29 input    0.00 | X-H torsion
[ 27243 18274 18273 18272 ] final  134.26 input    0.00 | X-H torsion
[ 27246 18314 18313 18312 ] final   82.16 input   -0.00 | X-H torsion
[ 27249 18362 18361 18360 ] final -166.77 input    0.00 | X-H torsion
[ 27257 17176 17175 17174 ] final  114.52 input   -0.00 | X-H torsion
[ 27259 17220 17219 17218 ] final   84.89 input   -0.00 | X-H torsion
[ 27261 17050 17049 17048 ] final  134.36 input    0.00 | X-H torsion
[ 27270 10132 10131 10130 ] final -135.43 input    0.00 | X-H torsion
[ 27272 11410 11409 11408 ] final -101.86 input   -0.00 | X-H torsion
[ 27279 11602 11601 11600 ] final   99.11 input    0.00 | X-H torsion
[ 27288 18684 18683 18682 ] final   -6.56 input   -0.00 | X-H torsion

> <Gold.Protein.ActiveResidues>
 LYS309  TRP311  GLU314  MET341  HIS342  TRP414  ALA417  ARG419  CYS420  VAL421 
 GLY422  ARG423  LEU460  SER462  ALA463  SER482  GLN483  LEU484  ILE485  ARG486 
 ALA502  TRP566  TYR567  LEU569  PRO570  ALA571  VAL572  SER573  ASN574  MET575 
 PHE589  SER590  GLY591  TRP592  TYR593  MET594  GLU597  ILE598  ARG601  ASP602 
 ASP605  ARG608  TRP683  PHE696  HIS697  GLU699  TYR711  ASP714  HEM750  H4B760 

> <Gold.Protein.RotatedAtoms>
  220.3566    7.5038   18.0366 H   0  0  0  0  0  0  0  0  0  0  0  0  # atno 594  bound_to 544 
  220.0316    8.2679   19.4709 H   0  0  0  0  0  0  0  0  0  0  0  0  # atno 595  bound_to 544 
  221.2162    8.8530   18.4696 H   0  0  0  0  0  0  0  0  0  0  0  0  # atno 596  bound_to 544 
  228.2326    7.1623   20.1087 H   0  0  0  0  0  0  0  0  0  0  0  0  # atno 739  bound_to 695 
  225.8976   13.6069   25.6302 H   0  0  0  0  0  0  0  0  0  0  0  0  # atno 2556 bound_to 2523
  222.4751   14.0750   25.1690 H   0  0  0  0  0  0  0  0  0  0  0  0  # atno 2627 bound_to 2595
  229.2853   27.0944   22.5306 H   0  0  0  0  0  0  0  0  0  0  0  0  # atno 7426 bound_to 7411
  232.6656   27.5287   19.5855 H   0  0  0  0  0  0  0  0  0  0  0  0  # atno 7476 bound_to 7453
  232.8091   29.4110   19.5468 H   0  0  0  0  0  0  0  0  0  0  0  0  # atno 7522 bound_to 7511
  230.9476   36.0440   13.1048 H   0  0  0  0  0  0  0  0  0  0  0  0  # atno 10099 bound_to 10092
  227.0093   36.2465   10.7709 H   0  0  0  0  0  0  0  0  0  0  0  0  # atno 10139 bound_to 10129
  221.2464   19.0345    8.6098 H   0  0  0  0  0  0  0  0  0  0  0  0  # atno 11423 bound_to 11412
  220.5251   21.7963    8.4232 H   0  0  0  0  0  0  0  0  0  0  0  0  # atno 11475 bound_to 11457
  222.7502   23.8522    6.6272 H   0  0  0  0  0  0  0  0  0  0  0  0  # atno 11539 bound_to 11523
  223.5788   23.8153    5.2424 H   0  0  0  0  0  0  0  0  0  0  0  0  # atno 11615 bound_to 11599
  228.7628   20.8960    6.9826 H   0  0  0  0  0  0  0  0  0  0  0  0  # atno 16993 bound_to 16954
  227.0913   26.2106    9.2676 H   0  0  0  0  0  0  0  0  0  0  0  0  # atno 17193 bound_to 17173
  225.1086   26.0658   11.0619 H   0  0  0  0  0  0  0  0  0  0  0  0  # atno 17249 bound_to 17217
  221.5378   25.3157   10.7397 H   0  0  0  0  0  0  0  0  0  0  0  0  # atno 17301 bound_to 17279
  219.4355   23.4016   12.1671 H   0  0  0  0  0  0  0  0  0  0  0  0  # atno 17356 bound_to 17327
  220.8662   30.4637   12.0423 H   0  0  0  0  0  0  0  0  0  0  0  0  # atno 18241 bound_to 18201
  224.2809   31.1360   10.7943 H   0  0  0  0  0  0  0  0  0  0  0  0  # atno 18293 bound_to 18271
  225.3777   32.6447    9.0591 H   0  0  0  0  0  0  0  0  0  0  0  0  # atno 18297 bound_to 18276
  228.7001   30.0654   11.2121 H   0  0  0  0  0  0  0  0  0  0  0  0  # atno 18325 bound_to 18311
  231.7389   30.1982   11.4046 H   0  0  0  0  0  0  0  0  0  0  0  0  # atno 18407 bound_to 18359
  233.5404   28.5169   10.1034 H   0  0  0  0  0  0  0  0  0  0  0  0  # atno 18493 bound_to 18451
  229.8026   22.8091    8.1048 H   0  0  0  0  0  0  0  0  0  0  0  0  # atno 18501 bound_to 18462
  235.5603   25.3687   11.3823 H   0  0  0  0  0  0  0  0  0  0  0  0  # atno 18561 bound_to 18527
  224.4691   20.7013   20.4472 H   0  0  0  0  0  0  0  0  0  0  0  0  # atno 26082 bound_to 26043
  230.1279   12.2209   20.4241 H   0  0  0  0  0  0  0  0  0  0  0  0  # atno 27179 bound_to 27119
  229.1355   14.4163   23.8822 H   0  0  0  0  0  0  0  0  0  0  0  0  # atno 27181 bound_to 27121
  226.5795    6.9504   20.6262 LP  0  0  0  0  0  0  0  0  0  0  0  0  # atno 27200 bound_to 695 
  226.8864    7.0110   15.5831 LP  0  0  0  0  0  0  0  0  0  0  0  0  # atno 27201 bound_to 698 
  226.6917    8.6285   16.1710 LP  0  0  0  0  0  0  0  0  0  0  0  0  # atno 27202 bound_to 698 
  224.1893   13.5750   25.9862 LP  0  0  0  0  0  0  0  0  0  0  0  0  # atno 27203 bound_to 2523
  223.8413   17.4611   23.8091 LP  0  0  0  0  0  0  0  0  0  0  0  0  # atno 27204 bound_to 2526
  223.0286   17.5645   25.3352 LP  0  0  0  0  0  0  0  0  0  0  0  0  # atno 27205 bound_to 2526
  223.1261   15.6109   24.6398 LP  0  0  0  0  0  0  0  0  0  0  0  0  # atno 27206 bound_to 2595
  224.3851   19.2217   21.1199 LP  0  0  0  0  0  0  0  0  0  0  0  0  # atno 27210 bound_to 26043
  224.3781   20.5530   22.0654 LP  0  0  0  0  0  0  0  0  0  0  0  0  # atno 27211 bound_to 26043
  230.8018   11.4344   21.6798 LP  0  0  0  0  0  0  0  0  0  0  0  0  # atno 27214 bound_to 27119
  231.5722   12.7032   20.9992 LP  0  0  0  0  0  0  0  0  0  0  0  0  # atno 27215 bound_to 27119
  231.6349   24.9596   21.0057 LP  0  0  0  0  0  0  0  0  0  0  0  0  # atno 27228 bound_to 7328
  230.4781   23.6828   21.1826 LP  0  0  0  0  0  0  0  0  0  0  0  0  # atno 27229 bound_to 7328
  230.3360   25.7188   22.3106 LP  0  0  0  0  0  0  0  0  0  0  0  0  # atno 27230 bound_to 7411
  232.4962   27.0155   21.2480 LP  0  0  0  0  0  0  0  0  0  0  0  0  # atno 27231 bound_to 7453
  234.5261   29.0922   19.5406 LP  0  0  0  0  0  0  0  0  0  0  0  0  # atno 27232 bound_to 7511
  232.6542   33.8886   18.7358 LP  0  0  0  0  0  0  0  0  0  0  0  0  # atno 27233 bound_to 7514
  233.7645   33.2716   17.5583 LP  0  0  0  0  0  0  0  0  0  0  0  0  # atno 27234 bound_to 7514
  228.7041   28.4422    9.7693 LP  0  0  0  0  0  0  0  0  0  0  0  0  # atno 27236 bound_to 17124
  226.9933   28.7123    9.7555 LP  0  0  0  0  0  0  0  0  0  0  0  0  # atno 27237 bound_to 17124
  226.6300   26.5203    7.6121 LP  0  0  0  0  0  0  0  0  0  0  0  0  # atno 27238 bound_to 17173
  223.8236   27.0967   10.4641 LP  0  0  0  0  0  0  0  0  0  0  0  0  # atno 27239 bound_to 17217
  225.1792   28.8929   11.1509 LP  0  0  0  0  0  0  0  0  0  0  0  0  # atno 27240 bound_to 18204
  223.4566   28.7828   11.0076 LP  0  0  0  0  0  0  0  0  0  0  0  0  # atno 27241 bound_to 18204
  225.2416   31.9517   11.9991 LP  0  0  0  0  0  0  0  0  0  0  0  0  # atno 27242 bound_to 18271
  227.8915   33.3329   12.0063 LP  0  0  0  0  0  0  0  0  0  0  0  0  # atno 27243 bound_to 18274
  226.9355   33.5040   10.5722 LP  0  0  0  0  0  0  0  0  0  0  0  0  # atno 27244 bound_to 18274
  227.9506   31.5729   10.7340 LP  0  0  0  0  0  0  0  0  0  0  0  0  # atno 27245 bound_to 18311
  230.9845   32.4907    8.6404 LP  0  0  0  0  0  0  0  0  0  0  0  0  # atno 27246 bound_to 18314
  230.4172   30.8681    8.4279 LP  0  0  0  0  0  0  0  0  0  0  0  0  # atno 27247 bound_to 18314
  231.8290   31.7052   10.5213 LP  0  0  0  0  0  0  0  0  0  0  0  0  # atno 27248 bound_to 18359
  234.2710   28.0825   12.0330 LP  0  0  0  0  0  0  0  0  0  0  0  0  # atno 27249 bound_to 18362
  233.1238   29.3729   12.1696 LP  0  0  0  0  0  0  0  0  0  0  0  0  # atno 27250 bound_to 18362
  234.5338   28.3556    8.6757 LP  0  0  0  0  0  0  0  0  0  0  0  0  # atno 27251 bound_to 18451
  235.7244   26.9175   12.1748 LP  0  0  0  0  0  0  0  0  0  0  0  0  # atno 27252 bound_to 18527
  223.6536   24.5603    9.0187 LP  0  0  0  0  0  0  0  0  0  0  0  0  # atno 27257 bound_to 17176
  222.8473   25.9484    8.3683 LP  0  0  0  0  0  0  0  0  0  0  0  0  # atno 27258 bound_to 17176
  221.5573   27.8330   10.8914 LP  0  0  0  0  0  0  0  0  0  0  0  0  # atno 27259 bound_to 17220
  221.1652   27.6408   12.5675 LP  0  0  0  0  0  0  0  0  0  0  0  0  # atno 27260 bound_to 17220
  228.2320   25.4071    5.8090 LP  0  0  0  0  0  0  0  0  0  0  0  0  # atno 27261 bound_to 17050
  227.3353   26.5877    4.9135 LP  0  0  0  0  0  0  0  0  0  0  0  0  # atno 27262 bound_to 17050
  230.7808   21.5090    8.1274 LP  0  0  0  0  0  0  0  0  0  0  0  0  # atno 27263 bound_to 18462
  230.5369   22.3268    6.7352 LP  0  0  0  0  0  0  0  0  0  0  0  0  # atno 27264 bound_to 18462
  221.9424   29.3715   11.2013 LP  0  0  0  0  0  0  0  0  0  0  0  0  # atno 27265 bound_to 18201
  225.8046   32.1405    7.5716 LP  0  0  0  0  0  0  0  0  0  0  0  0  # atno 27266 bound_to 18276
  226.9400   32.6958    8.6056 LP  0  0  0  0  0  0  0  0  0  0  0  0  # atno 27267 bound_to 18276
  230.7257   35.1221   11.7825 LP  0  0  0  0  0  0  0  0  0  0  0  0  # atno 27268 bound_to 10092
  230.3024   34.5578   13.2553 LP  0  0  0  0  0  0  0  0  0  0  0  0  # atno 27269 bound_to 10092
  223.4877   33.1963   11.0514 LP  0  0  0  0  0  0  0  0  0  0  0  0  # atno 27270 bound_to 10132
  225.0275   33.6443   11.7058 LP  0  0  0  0  0  0  0  0  0  0  0  0  # atno 27271 bound_to 10132
  220.8726   23.3342   10.8626 LP  0  0  0  0  0  0  0  0  0  0  0  0  # atno 27272 bound_to 11410
  221.9190   22.1253   11.5287 LP  0  0  0  0  0  0  0  0  0  0  0  0  # atno 27273 bound_to 11410
  220.9715   24.6498   12.2494 LP  0  0  0  0  0  0  0  0  0  0  0  0  # atno 27274 bound_to 17279
  228.2885   19.6929    5.9951 LP  0  0  0  0  0  0  0  0  0  0  0  0  # atno 27275 bound_to 16954
  227.2394   20.8729    6.4116 LP  0  0  0  0  0  0  0  0  0  0  0  0  # atno 27276 bound_to 16954
  221.8874   21.0020    9.1872 LP  0  0  0  0  0  0  0  0  0  0  0  0  # atno 27277 bound_to 11457
  221.8724   25.0863    7.4963 LP  0  0  0  0  0  0  0  0  0  0  0  0  # atno 27278 bound_to 11523
  225.6379   21.9477    5.5161 LP  0  0  0  0  0  0  0  0  0  0  0  0  # atno 27279 bound_to 11602
  226.7945   22.3220    4.2824 LP  0  0  0  0  0  0  0  0  0  0  0  0  # atno 27280 bound_to 11602
  223.2562   25.1245    4.1335 LP  0  0  0  0  0  0  0  0  0  0  0  0  # atno 27283 bound_to 11599
  221.4842   17.6925    9.4994 LP  0  0  0  0  0  0  0  0  0  0  0  0  # atno 27286 bound_to 11412
  222.4811   18.9748    9.6686 LP  0  0  0  0  0  0  0  0  0  0  0  0  # atno 27287 bound_to 11412
  234.0450   18.0356   11.6796 LP  0  0  0  0  0  0  0  0  0  0  0  0  # atno 27288 bound_to 18684
  234.3154   17.9348    9.9717 LP  0  0  0  0  0  0  0  0  0  0  0  0  # atno 27289 bound_to 18684

> <Gold.Score>
     Fitness  S(hb_ext) S(vdw_ext)  S(hb_int)    S(int)      intcor
     34.63       4.52      22.82       0.00      -1.27      -0.77

> <Gold.Goldscore.Fitness>
34.6263

> <Gold.Goldscore.Internal.Vdw>
-1.3858

> <Gold.Goldscore.Internal.Torsion>
-0.6481

> <Gold.Goldscore.External.Vdw>
22.8209

> <Gold.Goldscore.Internal.HBond>
0.0000

> <Gold.Goldscore.External.HBond>
4.5162

> <Gold.Goldscore.Internal.Correction>
-0.7653

> <Gold.Goldscore.Hbonds>
donor molecule, donor type, donor heavy atom, donor atom, acceptor molecule, acceptor atom, score
      L1  H     8    22       P1 26876  0.71
      L1  H    10    23       P1 11410  0.12

> <Gold.Goldscore.Internal.Vdw.Weighted>
-1.3858

> <Gold.Goldscore.Internal.Torsion.Weighted>
-0.6481

> <Gold.Goldscore.External.Vdw.Weighted>
31.3787

> <Gold.Goldscore.Internal.HBond.Weighted>
0.0000

> <Gold.Goldscore.External.HBond.Weighted>
4.5162

> <Gold.Goldscore.Internal.Correction.Weighted>
-0.7653

> <Gold.Rescore>
     Score     S(PLP)   S(hbond)     S(cho)   S(metal)  DE(clash)   DE(tors)     intcor
     12.03     -11.52       0.97       0.00       0.00       0.98       0.70       ----

> <Gold.PLP.Fitness>
12.0284

> <Gold.PLP.PLP>
-11.5155

> <Gold.PLP.part.hbond>
-1.8433

> <Gold.PLP.part.metal>
0.0000

> <Gold.PLP.part.buried>
12.1254

> <Gold.PLP.part.nonpolar>
-29.9891

> <Gold.PLP.part.repulsive>
9.9351

> <Gold.PLP.ligand.clash>
0.9811

> <Gold.PLP.ligand.torsion>
0.7042

> <Gold.PLP.Chemscore.Hbond>
0.9675

> <Gold.PLP.Chemscore.CHOScore>
0.0000

> <Gold.PLP.Chemscore.Metal>
0.0000

> <Gold.Chemscore.Hbonds>
donor molecule, donor type, donor heavy atom, donor atom, acceptor molecule, acceptor atom, score
      L1  H     8    22       P1 26876  1.00

> <Gold.PLP.Chemscore.Internal.Correction>
   9.000000E+99

