#       Name:                CT1002167954
#       Creating user name   hitesit
#       Creation time:       Sun Apr 16 22:59:49 2023


#       File generated by GOLD software.
#

@<TRIPOS>MOLECULE
CT1002167954|ligand_prepared|mol2|1|dock2
    29    30     1
SMALL
NO_CHARGES


@<TRIPOS>ATOM
      1 C1         228.6772  22.8758  12.1851 C.3            1 RES1               0.0000
      2 C2         229.5776  21.6339  12.3454 C.ar           1 RES1               0.0000
      3 C3         227.8673  22.9870  13.4735 C.2            1 RES1               0.0000
      4 C4         229.6140  24.0526  11.9356 C.2            1 RES1               0.0000
      5 C5         227.6952  22.7860  10.9939 C.3            1 RES1               0.0000
      6 C6         230.3349  21.1649  11.2761 C.ar           1 RES1               0.0000
      7 C7         229.6634  20.9496  13.5549 C.ar           1 RES1               0.0000
      8 N8         228.2101  23.9720  14.3523 N.am           1 RES1               0.0000
      9 O9         226.9673  22.1976  13.7327 O.2            1 RES1               0.0000
     10 N10        229.6755  25.0371  12.8867 N.am           1 RES1               0.0000
     11 O11        230.3117  24.1279  10.9317 O.2            1 RES1               0.0000
     12 C12        227.0609  24.1165  10.6204 C.3            1 RES1               0.0000
     13 C13        231.1506  20.0538  11.4118 C.ar           1 RES1               0.0000
     14 C14        230.4796  19.8385  13.6884 C.ar           1 RES1               0.0000
     15 C15        229.0390  25.0349  14.0980 C.2            1 RES1               0.0000
     16 C16        231.2238  19.3902  12.6180 C.ar           1 RES1               0.0000
     17 O17        229.1870  25.9310  14.9240 O.2            1 RES1               0.0000
     18 H18        228.2329  22.3940  10.1217 H              1 RES1               0.0000
     19 H19        226.8995  22.0738  11.2451 H              1 RES1               0.0000
     20 H20        230.2882  21.6727  10.3185 H              1 RES1               0.0000
     21 H21        229.0860  21.2837  14.4103 H              1 RES1               0.0000
     22 H22        227.8135  23.9127  15.2847 H              1 RES1               0.0000
     23 H23        230.2488  25.8468  12.6718 H              1 RES1               0.0000
     24 H24        226.3811  23.9972   9.7794 H              1 RES1               0.0000
     25 H25        226.4968  24.5233  11.4571 H              1 RES1               0.0000
     26 H26        227.8223  24.8416  10.3405 H              1 RES1               0.0000
     27 H27        231.7332  19.7041  10.5659 H              1 RES1               0.0000
     28 H28        230.5337  19.3189  14.6394 H              1 RES1               0.0000
     29 H29        231.8632  18.5200  12.7241 H              1 RES1               0.0000
@<TRIPOS>BOND
    1    1    2 1     
    2    1    3 1     
    3    1    4 1     
    4    1    5 1     
    5    2    6 ar    
    6    2    7 ar    
    7    3    8 1     
    8    3    9 2     
    9    4   10 1     
   10    4   11 2     
   11    5   12 1     
   12    5   18 1     
   13    5   19 1     
   14    6   13 ar    
   15    6   20 1     
   16    7   14 ar    
   17    7   21 1     
   18    8   15 1     
   19    8   22 1     
   20   10   15 1     
   21   10   23 1     
   22   12   24 1     
   23   12   25 1     
   24   12   26 1     
   25   13   16 ar    
   26   13   27 1     
   27   14   16 ar    
   28   14   28 1     
   29   15   17 2     
   30   16   29 1     
@<TRIPOS>SUBSTRUCTURE
      1 RES1           1
@<TRIPOS>SET
DONOR_HYDROGENS      STATIC     ATOMS    <user>   **** ""
2 22 23
ATOM$RED        STATIC     ATOMS    COLORGROUP SYSTEM
2 22 23
@<TRIPOS>COMMENT
> <Gold.Version>
2022.3.0

> <Gold.Id.Protein>
unknown|4v3u_clean|pdb

> <Gold.Protein.RotatedTorsions>
[  594  544  543  542 ] final  -83.47 input   59.98 | X-H torsion
[  739  695  696  697 ] final   23.27 input   98.51 | X-H torsion
[ 2556 2523 2524 2525 ] final -101.63 input  111.11 | X-H torsion
[ 2627 2595 2596 2597 ] final  101.73 input   53.40 | X-H torsion
[ 26082 26043 26042 26040 ] final    7.59 input   60.02 | X-H torsion
[ 27179 27119 27118 27114 ] final   50.52 input   60.01 | X-H torsion
[ 7426 7411 7412 7413 ] final  -29.40 input   83.97 | X-H torsion
[ 7476 7453 7454 7455 ] final  179.69 input   94.79 | X-H torsion
[ 7522 7511 7512 7513 ] final   35.87 input   85.82 | X-H torsion
[ 17193 17173 17174 17175 ] final  -57.98 input   42.33 | X-H torsion
[ 17249 17217 17218 17219 ] final  -35.19 input  107.71 | X-H torsion
[ 18293 18271 18272 18273 ] final   90.12 input   26.15 | X-H torsion
[ 18325 18311 18312 18313 ] final   43.78 input   53.27 | X-H torsion
[ 18407 18359 18360 18361 ] final -112.63 input   33.85 | X-H torsion
[ 18493 18451 18452 18453 ] final  143.29 input  113.35 | X-H torsion
[ 18561 18527 18528 18529 ] final   58.48 input   85.91 | X-H torsion
[ 18501 18462 18461 18459 ] final  -49.18 input   59.98 | X-H torsion
[ 18241 18201 18202 18203 ] final  110.83 input   44.19 | X-H torsion
[ 18297 18276 18275 18272 ] final  131.70 input   59.98 | X-H torsion
[ 10099 10092 10091 10088 ] final -158.15 input   59.98 | X-H torsion
[ 17301 17279 17280 17281 ] final -123.19 input   44.55 | X-H torsion
[ 16993 16954 16953 16951 ] final -107.50 input   59.99 | X-H torsion
[ 11475 11457 11458 11459 ] final  147.79 input   48.15 | X-H torsion
[ 11539 11523 11524 11525 ] final    9.58 input  117.79 | X-H torsion
[ 11615 11599 11600 11601 ] final  102.36 input   58.98 | X-H torsion
[ 11423 11412 11411 11408 ] final  -35.37 input   60.01 | X-H torsion
[ 27181 27121 27120 27118 ] final   13.09 input   60.02 | X-H torsion
[ 10139 10129 10130 10131 ] final  110.63 input   28.23 | X-H torsion
[ 17356 17327 17328 17329 ] final   75.15 input   73.50 | X-H torsion
[ 27201  698  697  696 ] final   46.95 input    0.00 | X-H torsion
[ 27204 2526 2525 2524 ] final -161.15 input    0.00 | X-H torsion
[ 27228 7328 7327 7326 ] final -172.66 input    0.00 | X-H torsion
[ 27233 7514 7513 7512 ] final   -8.42 input    0.00 | X-H torsion
[ 27236 17124 17123 17122 ] final  -80.38 input    0.00 | X-H torsion
[ 27240 18204 18203 18202 ] final   14.21 input    0.00 | X-H torsion
[ 27243 18274 18273 18272 ] final -108.21 input    0.00 | X-H torsion
[ 27246 18314 18313 18312 ] final   85.23 input   -0.00 | X-H torsion
[ 27249 18362 18361 18360 ] final  136.10 input    0.00 | X-H torsion
[ 27257 17176 17175 17174 ] final -139.49 input   -0.00 | X-H torsion
[ 27259 17220 17219 17218 ] final  -25.52 input   -0.00 | X-H torsion
[ 27261 17050 17049 17048 ] final  -17.54 input    0.00 | X-H torsion
[ 27270 10132 10131 10130 ] final   -3.92 input    0.00 | X-H torsion
[ 27272 11410 11409 11408 ] final -106.13 input   -0.00 | X-H torsion
[ 27279 11602 11601 11600 ] final    5.44 input    0.00 | X-H torsion
[ 27288 18684 18683 18682 ] final   37.27 input   -0.00 | X-H torsion

> <Gold.Protein.ActiveResidues>
 LYS309  TRP311  GLU314  MET341  HIS342  TRP414  ALA417  ARG419  CYS420  VAL421 
 GLY422  ARG423  LEU460  SER462  ALA463  SER482  GLN483  LEU484  ILE485  ARG486 
 ALA502  TRP566  TYR567  LEU569  PRO570  ALA571  VAL572  SER573  ASN574  MET575 
 PHE589  SER590  GLY591  TRP592  TYR593  MET594  GLU597  ILE598  ARG601  ASP602 
 ASP605  ARG608  TRP683  PHE696  HIS697  GLU699  TYR711  ASP714  HEM750  H4B760 

> <Gold.Protein.RotatedAtoms>
  219.8488    7.8611   19.2291 H   0  0  0  0  0  0  0  0  0  0  0  0  # atno 594  bound_to 544 
  221.0241    8.9881   18.9205 H   0  0  0  0  0  0  0  0  0  0  0  0  # atno 595  bound_to 544 
  220.7308    7.7755   17.8286 H   0  0  0  0  0  0  0  0  0  0  0  0  # atno 596  bound_to 544 
  228.1462    6.8163   19.9712 H   0  0  0  0  0  0  0  0  0  0  0  0  # atno 739  bound_to 695 
  225.6290   14.1062   26.2059 H   0  0  0  0  0  0  0  0  0  0  0  0  # atno 2556 bound_to 2523
  222.4320   14.2694   24.3458 H   0  0  0  0  0  0  0  0  0  0  0  0  # atno 2627 bound_to 2595
  230.6053   26.1935   22.7417 H   0  0  0  0  0  0  0  0  0  0  0  0  # atno 7426 bound_to 7411
  232.7314   26.5461   20.9151 H   0  0  0  0  0  0  0  0  0  0  0  0  # atno 7476 bound_to 7453
  232.8954   29.5654   19.8058 H   0  0  0  0  0  0  0  0  0  0  0  0  # atno 7522 bound_to 7511
  230.4859   35.1065   13.6248 H   0  0  0  0  0  0  0  0  0  0  0  0  # atno 10099 bound_to 10092
  226.7984   35.2585   10.0169 H   0  0  0  0  0  0  0  0  0  0  0  0  # atno 10139 bound_to 10129
  221.1335   18.8631    8.6043 H   0  0  0  0  0  0  0  0  0  0  0  0  # atno 11423 bound_to 11412
  221.9281   21.0167    9.2068 H   0  0  0  0  0  0  0  0  0  0  0  0  # atno 11475 bound_to 11457
  222.8995   23.9828    6.6376 H   0  0  0  0  0  0  0  0  0  0  0  0  # atno 11539 bound_to 11523
  224.1038   25.0207    4.7527 H   0  0  0  0  0  0  0  0  0  0  0  0  # atno 11615 bound_to 11599
  228.9516   20.1065    6.5160 H   0  0  0  0  0  0  0  0  0  0  0  0  # atno 16993 bound_to 16954
  227.0068   26.0680    9.2477 H   0  0  0  0  0  0  0  0  0  0  0  0  # atno 17193 bound_to 17173
  223.8329   26.7013   10.1225 H   0  0  0  0  0  0  0  0  0  0  0  0  # atno 17249 bound_to 17217
  221.4556   25.7986   11.7462 H   0  0  0  0  0  0  0  0  0  0  0  0  # atno 17301 bound_to 17279
  219.7002   23.7027   12.8557 H   0  0  0  0  0  0  0  0  0  0  0  0  # atno 17356 bound_to 17327
  221.3610   29.7431   12.4851 H   0  0  0  0  0  0  0  0  0  0  0  0  # atno 18241 bound_to 18201
  224.6187   32.0728   10.7150 H   0  0  0  0  0  0  0  0  0  0  0  0  # atno 18293 bound_to 18271
  226.7041   32.3413    7.7714 H   0  0  0  0  0  0  0  0  0  0  0  0  # atno 18297 bound_to 18276
  228.7668   30.0813   10.8028 H   0  0  0  0  0  0  0  0  0  0  0  0  # atno 18325 bound_to 18311
  231.1253   30.7353   10.4085 H   0  0  0  0  0  0  0  0  0  0  0  0  # atno 18407 bound_to 18359
  233.8359   28.0253    8.6286 H   0  0  0  0  0  0  0  0  0  0  0  0  # atno 18493 bound_to 18451
  230.8472   21.4775    7.9799 H   0  0  0  0  0  0  0  0  0  0  0  0  # atno 18501 bound_to 18462
  235.2772   25.3858   12.0279 H   0  0  0  0  0  0  0  0  0  0  0  0  # atno 18561 bound_to 18527
  224.4671   20.4223   20.3119 H   0  0  0  0  0  0  0  0  0  0  0  0  # atno 26082 bound_to 26043
  231.6618   12.4545   21.3115 H   0  0  0  0  0  0  0  0  0  0  0  0  # atno 27179 bound_to 27119
  229.0450   14.3533   23.8919 H   0  0  0  0  0  0  0  0  0  0  0  0  # atno 27181 bound_to 27121
  226.6646    7.2911   20.7616 LP  0  0  0  0  0  0  0  0  0  0  0  0  # atno 27200 bound_to 695 
  226.7886    8.6456   16.1379 LP  0  0  0  0  0  0  0  0  0  0  0  0  # atno 27201 bound_to 698 
  226.7894    6.9940   15.6162 LP  0  0  0  0  0  0  0  0  0  0  0  0  # atno 27202 bound_to 698 
  224.4537   13.0834   25.4195 LP  0  0  0  0  0  0  0  0  0  0  0  0  # atno 27203 bound_to 2523
  222.7005   17.5418   25.0301 LP  0  0  0  0  0  0  0  0  0  0  0  0  # atno 27204 bound_to 2526
  224.1694   17.4837   24.1141 LP  0  0  0  0  0  0  0  0  0  0  0  0  # atno 27205 bound_to 2526
  223.1679   15.4225   25.4372 LP  0  0  0  0  0  0  0  0  0  0  0  0  # atno 27206 bound_to 2595
  224.3690   19.2445   21.4308 LP  0  0  0  0  0  0  0  0  0  0  0  0  # atno 27210 bound_to 26043
  224.3963   20.8111   21.8907 LP  0  0  0  0  0  0  0  0  0  0  0  0  # atno 27211 bound_to 26043
  230.3806   12.5218   20.3098 LP  0  0  0  0  0  0  0  0  0  0  0  0  # atno 27214 bound_to 27119
  230.4496   11.3807   21.4760 LP  0  0  0  0  0  0  0  0  0  0  0  0  # atno 27215 bound_to 27119
  231.3599   25.0328   20.7048 LP  0  0  0  0  0  0  0  0  0  0  0  0  # atno 27228 bound_to 7328
  230.7531   23.6096   21.4835 LP  0  0  0  0  0  0  0  0  0  0  0  0  # atno 27229 bound_to 7328
  229.0352   26.6066   22.1026 LP  0  0  0  0  0  0  0  0  0  0  0  0  # atno 27230 bound_to 7411
  232.4321   27.9736   19.9515 LP  0  0  0  0  0  0  0  0  0  0  0  0  # atno 27231 bound_to 7453
  234.4414   28.9408   19.2866 LP  0  0  0  0  0  0  0  0  0  0  0  0  # atno 27232 bound_to 7511
  233.6160   33.1990   17.4842 LP  0  0  0  0  0  0  0  0  0  0  0  0  # atno 27233 bound_to 7514
  232.8027   33.9612   18.8100 LP  0  0  0  0  0  0  0  0  0  0  0  0  # atno 27234 bound_to 7514
  228.1090   28.0885   10.4282 LP  0  0  0  0  0  0  0  0  0  0  0  0  # atno 27236 bound_to 17124
  227.5883   29.0660    9.0966 LP  0  0  0  0  0  0  0  0  0  0  0  0  # atno 27237 bound_to 17124
  226.7128   26.6601    7.6316 LP  0  0  0  0  0  0  0  0  0  0  0  0  # atno 27238 bound_to 17173
  225.0488   26.4863   11.3663 LP  0  0  0  0  0  0  0  0  0  0  0  0  # atno 27239 bound_to 17217
  223.4585   28.7568   11.1486 LP  0  0  0  0  0  0  0  0  0  0  0  0  # atno 27240 bound_to 18204
  225.1773   28.9189   11.0099 LP  0  0  0  0  0  0  0  0  0  0  0  0  # atno 27241 bound_to 18204
  224.9072   31.0241   12.0776 LP  0  0  0  0  0  0  0  0  0  0  0  0  # atno 27242 bound_to 18271
  227.8279   33.6037   10.5517 LP  0  0  0  0  0  0  0  0  0  0  0  0  # atno 27243 bound_to 18274
  226.9991   33.2331   12.0267 LP  0  0  0  0  0  0  0  0  0  0  0  0  # atno 27244 bound_to 18274
  227.8860   31.5576   11.1305 LP  0  0  0  0  0  0  0  0  0  0  0  0  # atno 27245 bound_to 18311
  231.0273   32.4759    8.6296 LP  0  0  0  0  0  0  0  0  0  0  0  0  # atno 27246 bound_to 18314
  230.3745   30.8829    8.4387 LP  0  0  0  0  0  0  0  0  0  0  0  0  # atno 27247 bound_to 18314
  232.4254   31.1832   11.4895 LP  0  0  0  0  0  0  0  0  0  0  0  0  # atno 27248 bound_to 18359
  233.4638   27.8983   12.0143 LP  0  0  0  0  0  0  0  0  0  0  0  0  # atno 27249 bound_to 18362
  233.9310   29.5571   12.1883 LP  0  0  0  0  0  0  0  0  0  0  0  0  # atno 27250 bound_to 18362
  234.2443   28.8372   10.1203 LP  0  0  0  0  0  0  0  0  0  0  0  0  # atno 27251 bound_to 18451
  236.0012   26.9008   11.5439 LP  0  0  0  0  0  0  0  0  0  0  0  0  # atno 27252 bound_to 18527
  222.5696   25.3981    9.2091 LP  0  0  0  0  0  0  0  0  0  0  0  0  # atno 27257 bound_to 17176
  223.9312   25.1106    8.1779 LP  0  0  0  0  0  0  0  0  0  0  0  0  # atno 27258 bound_to 17176
  222.0649   27.8564   12.2199 LP  0  0  0  0  0  0  0  0  0  0  0  0  # atno 27259 bound_to 17220
  220.6576   27.6174   11.2390 LP  0  0  0  0  0  0  0  0  0  0  0  0  # atno 27260 bound_to 17220
  227.6109   26.4357    4.6346 LP  0  0  0  0  0  0  0  0  0  0  0  0  # atno 27261 bound_to 17050
  227.9564   25.5591    6.0879 LP  0  0  0  0  0  0  0  0  0  0  0  0  # atno 27262 bound_to 17050
  230.4351   22.4566    6.7473 LP  0  0  0  0  0  0  0  0  0  0  0  0  # atno 27263 bound_to 18462
  229.8303   22.7206    8.2411 LP  0  0  0  0  0  0  0  0  0  0  0  0  # atno 27264 bound_to 18462
  221.4611   30.0726   10.7706 LP  0  0  0  0  0  0  0  0  0  0  0  0  # atno 27265 bound_to 18201
  226.2703   32.8491    9.2557 LP  0  0  0  0  0  0  0  0  0  0  0  0  # atno 27266 bound_to 18276
  225.1395   32.2927    8.2174 LP  0  0  0  0  0  0  0  0  0  0  0  0  # atno 27267 bound_to 18276
  231.0400   36.0554   12.4247 LP  0  0  0  0  0  0  0  0  0  0  0  0  # atno 27268 bound_to 10092
  230.4532   34.5689   12.0893 LP  0  0  0  0  0  0  0  0  0  0  0  0  # atno 27269 bound_to 10092
  225.0264   33.5483   11.0010 LP  0  0  0  0  0  0  0  0  0  0  0  0  # atno 27270 bound_to 10132
  223.4888   33.2923   11.7562 LP  0  0  0  0  0  0  0  0  0  0  0  0  # atno 27271 bound_to 10132
  220.9233   23.3562   10.8291 LP  0  0  0  0  0  0  0  0  0  0  0  0  # atno 27272 bound_to 11410
  221.8684   22.1034   11.5622 LP  0  0  0  0  0  0  0  0  0  0  0  0  # atno 27273 bound_to 11410
  221.0526   24.1735   11.2565 LP  0  0  0  0  0  0  0  0  0  0  0  0  # atno 27274 bound_to 17279
  227.4294   20.0782    5.9419 LP  0  0  0  0  0  0  0  0  0  0  0  0  # atno 27275 bound_to 16954
  227.9084   21.2829    6.9348 LP  0  0  0  0  0  0  0  0  0  0  0  0  # atno 27276 bound_to 16954
  220.5380   21.7517    8.4336 LP  0  0  0  0  0  0  0  0  0  0  0  0  # atno 27277 bound_to 11457
  221.7258   24.9581    7.4861 LP  0  0  0  0  0  0  0  0  0  0  0  0  # atno 27278 bound_to 11523
  226.1386   22.9905    5.0083 LP  0  0  0  0  0  0  0  0  0  0  0  0  # atno 27279 bound_to 11602
  226.2938   21.2792    4.7903 LP  0  0  0  0  0  0  0  0  0  0  0  0  # atno 27280 bound_to 11602
  222.7401   23.9395    4.6148 LP  0  0  0  0  0  0  0  0  0  0  0  0  # atno 27283 bound_to 11599
  221.6457   17.7057    9.6275 LP  0  0  0  0  0  0  0  0  0  0  0  0  # atno 27286 bound_to 11412
  222.4331   19.1340    9.5460 LP  0  0  0  0  0  0  0  0  0  0  0  0  # atno 27287 bound_to 11412
  233.5767   18.3282   11.3435 LP  0  0  0  0  0  0  0  0  0  0  0  0  # atno 27288 bound_to 18684
  234.7838   17.6423   10.3078 LP  0  0  0  0  0  0  0  0  0  0  0  0  # atno 27289 bound_to 18684

> <Gold.Score>
     Fitness  S(hb_ext) S(vdw_ext)  S(hb_int)    S(int)      intcor
     33.54       0.62      26.54       0.00      -3.58      -0.77

> <Gold.Goldscore.Fitness>
33.5367

> <Gold.Goldscore.Internal.Vdw>
-3.6605

> <Gold.Goldscore.Internal.Torsion>
-0.6822

> <Gold.Goldscore.External.Vdw>
26.5401

> <Gold.Goldscore.Internal.HBond>
0.0000

> <Gold.Goldscore.External.HBond>
0.6216

> <Gold.Goldscore.Internal.Correction>
-0.7653

> <Gold.Goldscore.Hbonds>
donor molecule, donor type, donor heavy atom, donor atom, acceptor molecule, acceptor atom, score
      P1  M 26892 27290       L1    17  0.06

> <Gold.Goldscore.Internal.Vdw.Weighted>
-3.6605

> <Gold.Goldscore.Internal.Torsion.Weighted>
-0.6822

> <Gold.Goldscore.External.Vdw.Weighted>
36.4926

> <Gold.Goldscore.Internal.HBond.Weighted>
0.0000

> <Gold.Goldscore.External.HBond.Weighted>
0.6216

> <Gold.Goldscore.Internal.Correction.Weighted>
-0.7653

> <Gold.Rescore>
     Score     S(PLP)   S(hbond)     S(cho)   S(metal)  DE(clash)   DE(tors)     intcor
     19.01     -21.09       0.00       0.00       0.00       1.38       0.36       ----

> <Gold.PLP.Fitness>
19.0084

> <Gold.PLP.PLP>
-21.0943

> <Gold.PLP.part.hbond>
-0.7908

> <Gold.PLP.part.metal>
0.0000

> <Gold.PLP.part.buried>
6.2730

> <Gold.PLP.part.nonpolar>
-27.3424

> <Gold.PLP.part.repulsive>
0.3483

> <Gold.PLP.ligand.clash>
1.3813

> <Gold.PLP.ligand.torsion>
0.3564

> <Gold.PLP.Chemscore.Hbond>
0.0000

> <Gold.PLP.Chemscore.CHOScore>
0.0000

> <Gold.PLP.Chemscore.Metal>
0.0014

> <Gold.Chemscore.Hbonds>
donor molecule, donor type, donor heavy atom, donor atom, acceptor molecule, acceptor atom, score
      P1  M 26892 26892       L1    17  0.01

> <Gold.PLP.Chemscore.Internal.Correction>
   9.000000E+99

