#       Name:                CT1002167954
#       Creating user name   hitesit
#       Creation time:       Sun Apr 16 22:59:48 2023


#       File generated by GOLD software.
#

@<TRIPOS>MOLECULE
CT1002167954|ligand_prepared|mol2|1|dock1
    29    30     1
SMALL
NO_CHARGES


@<TRIPOS>ATOM
      1 C1         229.5739  20.3624  11.8815 C.3            1 RES1               0.0000
      2 C2         228.9339  21.7581  11.7365 C.ar           1 RES1               0.0000
      3 C3         228.4273  19.3902  12.1430 C.2            1 RES1               0.0000
      4 C4         230.3269  20.1012  10.5817 C.2            1 RES1               0.0000
      5 C5         230.5836  20.2562  13.0481 C.3            1 RES1               0.0000
      6 C6         228.4134  22.1755  10.5152 C.ar           1 RES1               0.0000
      7 C7         228.8543  22.6367  12.8137 C.ar           1 RES1               0.0000
      8 N8         228.0578  18.5607  11.1255 N.am           1 RES1               0.0000
      9 O9         227.8303  19.3791  13.2125 O.2            1 RES1               0.0000
     10 N10        229.8825  19.0865   9.7750 N.am           1 RES1               0.0000
     11 O11        231.2908  20.7757  10.2407 O.2            1 RES1               0.0000
     12 C12        231.4366  18.9981  13.0081 C.3            1 RES1               0.0000
     13 C13        227.8318  23.4249  10.3764 C.ar           1 RES1               0.0000
     14 C14        228.2724  23.8857  12.6727 C.ar           1 RES1               0.0000
     15 C15        228.7635  18.3244   9.9732 C.2            1 RES1               0.0000
     16 C16        227.7605  24.2805  11.4550 C.ar           1 RES1               0.0000
     17 O17        228.3979  17.4667   9.1745 O.2            1 RES1               0.0000
     18 H18        231.2442  21.1316  13.0241 H              1 RES1               0.0000
     19 H19        230.0317  20.2786  13.9959 H              1 RES1               0.0000
     20 H20        228.4627  21.5168   9.6545 H              1 RES1               0.0000
     21 H21        229.2514  22.3478  13.7808 H              1 RES1               0.0000
     22 H22        227.1751  18.0708  11.2311 H              1 RES1               0.0000
     23 H23        230.4374  18.8801   8.9505 H              1 RES1               0.0000
     24 H24        232.1273  18.9735  13.8484 H              1 RES1               0.0000
     25 H25        230.8131  18.1077  13.0558 H              1 RES1               0.0000
     26 H26        232.0185  18.9556  12.0897 H              1 RES1               0.0000
     27 H27        227.4316  23.7313   9.4156 H              1 RES1               0.0000
     28 H28        228.2190  24.5561  13.5241 H              1 RES1               0.0000
     29 H29        227.3045  25.2590  11.3461 H              1 RES1               0.0000
@<TRIPOS>BOND
    1    1    2 1     
    2    1    3 1     
    3    1    4 1     
    4    1    5 1     
    5    2    6 ar    
    6    2    7 ar    
    7    3    8 1     
    8    3    9 2     
    9    4   10 1     
   10    4   11 2     
   11    5   12 1     
   12    5   18 1     
   13    5   19 1     
   14    6   13 ar    
   15    6   20 1     
   16    7   14 ar    
   17    7   21 1     
   18    8   15 1     
   19    8   22 1     
   20   10   15 1     
   21   10   23 1     
   22   12   24 1     
   23   12   25 1     
   24   12   26 1     
   25   13   16 ar    
   26   13   27 1     
   27   14   16 ar    
   28   14   28 1     
   29   15   17 2     
   30   16   29 1     
@<TRIPOS>SUBSTRUCTURE
      1 RES1           1
@<TRIPOS>SET
DONOR_HYDROGENS      STATIC     ATOMS    <user>   **** ""
2 22 23
ATOM$RED        STATIC     ATOMS    COLORGROUP SYSTEM
2 22 23
@<TRIPOS>COMMENT
> <Gold.Version>
2022.3.0

> <Gold.Id.Protein>
unknown|4v3u_clean|pdb

> <Gold.Protein.RotatedTorsions>
[  594  544  543  542 ] final   83.61 input   59.98 | X-H torsion
[  739  695  696  697 ] final  106.65 input   98.51 | X-H torsion
[ 2556 2523 2524 2525 ] final   26.26 input  111.11 | X-H torsion
[ 2627 2595 2596 2597 ] final  175.08 input   53.40 | X-H torsion
[ 26082 26043 26042 26040 ] final  -85.64 input   60.02 | X-H torsion
[ 27179 27119 27118 27114 ] final  154.79 input   60.01 | X-H torsion
[ 7426 7411 7412 7413 ] final   70.39 input   83.97 | X-H torsion
[ 7476 7453 7454 7455 ] final  -60.84 input   94.79 | X-H torsion
[ 7522 7511 7512 7513 ] final  124.64 input   85.82 | X-H torsion
[ 17193 17173 17174 17175 ] final   40.39 input   42.33 | X-H torsion
[ 17249 17217 17218 17219 ] final -109.87 input  107.71 | X-H torsion
[ 18293 18271 18272 18273 ] final   46.48 input   26.15 | X-H torsion
[ 18325 18311 18312 18313 ] final   49.87 input   53.27 | X-H torsion
[ 18407 18359 18360 18361 ] final  126.18 input   33.85 | X-H torsion
[ 18493 18451 18452 18453 ] final  108.33 input  113.35 | X-H torsion
[ 18561 18527 18528 18529 ] final -149.74 input   85.91 | X-H torsion
[ 18501 18462 18461 18459 ] final   64.04 input   59.98 | X-H torsion
[ 18241 18201 18202 18203 ] final  -90.34 input   44.19 | X-H torsion
[ 18297 18276 18275 18272 ] final  147.61 input   59.98 | X-H torsion
[ 10099 10092 10091 10088 ] final   19.54 input   59.98 | X-H torsion
[ 17301 17279 17280 17281 ] final  -63.65 input   44.55 | X-H torsion
[ 16993 16954 16953 16951 ] final  -28.38 input   59.99 | X-H torsion
[ 11475 11457 11458 11459 ] final   42.45 input   48.15 | X-H torsion
[ 11539 11523 11524 11525 ] final -129.71 input  117.79 | X-H torsion
[ 11615 11599 11600 11601 ] final  -88.79 input   58.98 | X-H torsion
[ 11423 11412 11411 11408 ] final  132.81 input   60.01 | X-H torsion
[ 27181 27121 27120 27118 ] final   16.04 input   60.02 | X-H torsion
[ 10139 10129 10130 10131 ] final  171.35 input   28.23 | X-H torsion
[ 17356 17327 17328 17329 ] final   53.28 input   73.50 | X-H torsion
[ 27201  698  697  696 ] final  106.23 input    0.00 | X-H torsion
[ 27204 2526 2525 2524 ] final  -68.37 input    0.00 | X-H torsion
[ 27228 7328 7327 7326 ] final -118.93 input    0.00 | X-H torsion
[ 27233 7514 7513 7512 ] final -104.67 input    0.00 | X-H torsion
[ 27236 17124 17123 17122 ] final  -92.00 input    0.00 | X-H torsion
[ 27240 18204 18203 18202 ] final  -72.24 input    0.00 | X-H torsion
[ 27243 18274 18273 18272 ] final -177.85 input    0.00 | X-H torsion
[ 27246 18314 18313 18312 ] final  -12.13 input   -0.00 | X-H torsion
[ 27249 18362 18361 18360 ] final  136.74 input    0.00 | X-H torsion
[ 27257 17176 17175 17174 ] final  -71.44 input   -0.00 | X-H torsion
[ 27259 17220 17219 17218 ] final   96.16 input   -0.00 | X-H torsion
[ 27261 17050 17049 17048 ] final  -72.44 input    0.00 | X-H torsion
[ 27270 10132 10131 10130 ] final   45.63 input    0.00 | X-H torsion
[ 27272 11410 11409 11408 ] final   34.04 input   -0.00 | X-H torsion
[ 27279 11602 11601 11600 ] final  136.25 input    0.00 | X-H torsion
[ 27288 18684 18683 18682 ] final  -37.74 input   -0.00 | X-H torsion

> <Gold.Protein.ActiveResidues>
 LYS309  TRP311  GLU314  MET341  HIS342  TRP414  ALA417  ARG419  CYS420  VAL421 
 GLY422  ARG423  LEU460  SER462  ALA463  SER482  GLN483  LEU484  ILE485  ARG486 
 ALA502  TRP566  TYR567  LEU569  PRO570  ALA571  VAL572  SER573  ASN574  MET575 
 PHE589  SER590  GLY591  TRP592  TYR593  MET594  GLU597  ILE598  ARG601  ASP602 
 ASP605  ARG608  TRP683  PHE696  HIS697  GLU699  TYR711  ASP714  HEM750  H4B760 

> <Gold.Protein.RotatedAtoms>
  221.2416    8.7031   18.2449 H   0  0  0  0  0  0  0  0  0  0  0  0  # atno 594  bound_to 544 
  220.1716    7.4377   18.2239 H   0  0  0  0  0  0  0  0  0  0  0  0  # atno 595  bound_to 544 
  220.1919    8.4851   19.5088 H   0  0  0  0  0  0  0  0  0  0  0  0  # atno 596  bound_to 544 
  227.8537    7.7843   20.5591 H   0  0  0  0  0  0  0  0  0  0  0  0  # atno 739  bound_to 695 
  224.1726   13.5423   25.9657 H   0  0  0  0  0  0  0  0  0  0  0  0  # atno 2556 bound_to 2523
  222.8330   15.2186   24.0894 H   0  0  0  0  0  0  0  0  0  0  0  0  # atno 2627 bound_to 2595
  229.6957   27.1813   22.8073 H   0  0  0  0  0  0  0  0  0  0  0  0  # atno 7426 bound_to 7411
  232.2594   27.9969   20.8154 H   0  0  0  0  0  0  0  0  0  0  0  0  # atno 7476 bound_to 7453
  233.2718   28.8730   18.8566 H   0  0  0  0  0  0  0  0  0  0  0  0  # atno 7522 bound_to 7511
  230.8163   35.3467   11.7981 H   0  0  0  0  0  0  0  0  0  0  0  0  # atno 10099 bound_to 10092
  227.0172   36.0572   10.3472 H   0  0  0  0  0  0  0  0  0  0  0  0  # atno 10139 bound_to 10129
  222.4163   18.4488    9.8907 H   0  0  0  0  0  0  0  0  0  0  0  0  # atno 11423 bound_to 11412
  221.2309   21.0907    7.9716 H   0  0  0  0  0  0  0  0  0  0  0  0  # atno 11475 bound_to 11457
  221.4678   24.4308    7.3300 H   0  0  0  0  0  0  0  0  0  0  0  0  # atno 11539 bound_to 11523
  222.6692   24.0461    4.5024 H   0  0  0  0  0  0  0  0  0  0  0  0  # atno 11615 bound_to 11599
  228.5294   21.0950    7.0321 H   0  0  0  0  0  0  0  0  0  0  0  0  # atno 16993 bound_to 16954
  226.3794   25.6901    8.1322 H   0  0  0  0  0  0  0  0  0  0  0  0  # atno 17193 bound_to 17173
  224.5606   25.9011   10.1994 H   0  0  0  0  0  0  0  0  0  0  0  0  # atno 17249 bound_to 17217
  221.1437   25.2342   12.3333 H   0  0  0  0  0  0  0  0  0  0  0  0  # atno 17301 bound_to 17279
  219.6547   23.9568   13.0663 H   0  0  0  0  0  0  0  0  0  0  0  0  # atno 17356 bound_to 17327
  221.2606   30.3146   10.8420 H   0  0  0  0  0  0  0  0  0  0  0  0  # atno 18241 bound_to 18201
  224.9723   32.3669   11.1762 H   0  0  0  0  0  0  0  0  0  0  0  0  # atno 18293 bound_to 18271
  226.5008   32.2596    7.6328 H   0  0  0  0  0  0  0  0  0  0  0  0  # atno 18297 bound_to 18276
  228.7600   30.0626   10.8951 H   0  0  0  0  0  0  0  0  0  0  0  0  # atno 18325 bound_to 18311
  232.2058   31.7384   10.8717 H   0  0  0  0  0  0  0  0  0  0  0  0  # atno 18407 bound_to 18359
  234.3261   28.2198    8.5750 H   0  0  0  0  0  0  0  0  0  0  0  0  # atno 18493 bound_to 18451
  229.8676   22.6480    8.3168 H   0  0  0  0  0  0  0  0  0  0  0  0  # atno 18501 bound_to 18462
  235.8621   26.9945   11.9360 H   0  0  0  0  0  0  0  0  0  0  0  0  # atno 18561 bound_to 18527
  224.3905   19.2481   20.9963 H   0  0  0  0  0  0  0  0  0  0  0  0  # atno 26082 bound_to 26043
  230.6655   11.4041   21.6140 H   0  0  0  0  0  0  0  0  0  0  0  0  # atno 27179 bound_to 27119
  229.0073   14.3241   23.8995 H   0  0  0  0  0  0  0  0  0  0  0  0  # atno 27181 bound_to 27121
  226.9526    6.3380   20.1827 LP  0  0  0  0  0  0  0  0  0  0  0  0  # atno 27200 bound_to 695 
  227.4851    8.3213   15.7591 LP  0  0  0  0  0  0  0  0  0  0  0  0  # atno 27201 bound_to 698 
  226.0929    7.3182   15.9950 LP  0  0  0  0  0  0  0  0  0  0  0  0  # atno 27202 bound_to 698 
  225.8875   13.6385   25.6559 LP  0  0  0  0  0  0  0  0  0  0  0  0  # atno 27203 bound_to 2523
  223.9291   17.5644   25.2815 LP  0  0  0  0  0  0  0  0  0  0  0  0  # atno 27204 bound_to 2526
  222.9409   17.4612   23.8628 LP  0  0  0  0  0  0  0  0  0  0  0  0  # atno 27205 bound_to 2526
  222.7794   14.5030   25.6856 LP  0  0  0  0  0  0  0  0  0  0  0  0  # atno 27206 bound_to 2595
  224.3717   20.4347   22.1101 LP  0  0  0  0  0  0  0  0  0  0  0  0  # atno 27210 bound_to 26043
  224.4706   20.8031   20.5223 LP  0  0  0  0  0  0  0  0  0  0  0  0  # atno 27211 bound_to 26043
  231.6262   12.6212   21.1187 LP  0  0  0  0  0  0  0  0  0  0  0  0  # atno 27214 bound_to 27119
  230.2067   12.3384   20.3627 LP  0  0  0  0  0  0  0  0  0  0  0  0  # atno 27215 bound_to 27119
  231.7737   24.7564   21.3089 LP  0  0  0  0  0  0  0  0  0  0  0  0  # atno 27228 bound_to 7328
  230.3392   23.8860   20.8793 LP  0  0  0  0  0  0  0  0  0  0  0  0  # atno 27229 bound_to 7328
  229.9315   25.6331   22.0379 LP  0  0  0  0  0  0  0  0  0  0  0  0  # atno 27230 bound_to 7411
  232.8923   26.5590   20.0488 LP  0  0  0  0  0  0  0  0  0  0  0  0  # atno 27231 bound_to 7453
  234.0725   29.6195   20.2171 LP  0  0  0  0  0  0  0  0  0  0  0  0  # atno 27232 bound_to 7511
  233.9173   33.9285   18.5041 LP  0  0  0  0  0  0  0  0  0  0  0  0  # atno 27233 bound_to 7514
  232.5014   33.2317   17.7901 LP  0  0  0  0  0  0  0  0  0  0  0  0  # atno 27234 bound_to 7514
  227.9387   28.0862   10.4700 LP  0  0  0  0  0  0  0  0  0  0  0  0  # atno 27236 bound_to 17124
  227.7587   29.0683    9.0547 LP  0  0  0  0  0  0  0  0  0  0  0  0  # atno 27237 bound_to 17124
  227.3280   27.0307    8.7254 LP  0  0  0  0  0  0  0  0  0  0  0  0  # atno 27238 bound_to 17173
  224.3499   27.2548   11.2924 LP  0  0  0  0  0  0  0  0  0  0  0  0  # atno 27239 bound_to 17217
  224.3473   28.6825   11.9307 LP  0  0  0  0  0  0  0  0  0  0  0  0  # atno 27240 bound_to 18204
  224.2885   28.9931   10.2278 LP  0  0  0  0  0  0  0  0  0  0  0  0  # atno 27241 bound_to 18204
  224.5570   30.7329   11.6209 LP  0  0  0  0  0  0  0  0  0  0  0  0  # atno 27242 bound_to 18271
  228.2655   33.4830   11.4303 LP  0  0  0  0  0  0  0  0  0  0  0  0  # atno 27243 bound_to 18274
  226.5615   33.3538   11.1482 LP  0  0  0  0  0  0  0  0  0  0  0  0  # atno 27244 bound_to 18274
  227.8927   31.5757   11.0410 LP  0  0  0  0  0  0  0  0  0  0  0  0  # atno 27245 bound_to 18311
  229.8784   31.8730    8.7238 LP  0  0  0  0  0  0  0  0  0  0  0  0  # atno 27246 bound_to 18314
  231.5234   31.4857    8.3445 LP  0  0  0  0  0  0  0  0  0  0  0  0  # atno 27247 bound_to 18314
  231.3752   30.2082   11.0393 LP  0  0  0  0  0  0  0  0  0  0  0  0  # atno 27248 bound_to 18359
  233.4731   27.8958   12.0140 LP  0  0  0  0  0  0  0  0  0  0  0  0  # atno 27249 bound_to 18362
  233.9217   29.5596   12.1885 LP  0  0  0  0  0  0  0  0  0  0  0  0  # atno 27250 bound_to 18362
  233.7640   28.6467   10.1728 LP  0  0  0  0  0  0  0  0  0  0  0  0  # atno 27251 bound_to 18451
  235.4295   25.3285   11.6337 LP  0  0  0  0  0  0  0  0  0  0  0  0  # atno 27252 bound_to 18527
  222.7879   25.9395    8.4355 LP  0  0  0  0  0  0  0  0  0  0  0  0  # atno 27257 bound_to 17176
  223.7130   24.5691    8.9515 LP  0  0  0  0  0  0  0  0  0  0  0  0  # atno 27258 bound_to 17176
  221.3925   27.7992   10.8662 LP  0  0  0  0  0  0  0  0  0  0  0  0  # atno 27259 bound_to 17220
  221.3300   27.6746   12.5926 LP  0  0  0  0  0  0  0  0  0  0  0  0  # atno 27260 bound_to 17220
  227.1703   26.6033    5.2790 LP  0  0  0  0  0  0  0  0  0  0  0  0  # atno 27261 bound_to 17050
  228.3970   25.3916    5.4435 LP  0  0  0  0  0  0  0  0  0  0  0  0  # atno 27262 bound_to 17050
  230.8870   21.4581    7.8777 LP  0  0  0  0  0  0  0  0  0  0  0  0  # atno 27263 bound_to 18462
  230.3653   22.5400    6.7714 LP  0  0  0  0  0  0  0  0  0  0  0  0  # atno 27264 bound_to 18462
  221.5588   29.5165   12.3691 LP  0  0  0  0  0  0  0  0  0  0  0  0  # atno 27265 bound_to 18201
  226.5097   32.8434    9.1521 LP  0  0  0  0  0  0  0  0  0  0  0  0  # atno 27266 bound_to 18276
  225.1046   32.3805    8.4606 LP  0  0  0  0  0  0  0  0  0  0  0  0  # atno 27267 bound_to 18276
  230.2809   34.4437   13.0414 LP  0  0  0  0  0  0  0  0  0  0  0  0  # atno 27268 bound_to 10092
  230.8794   35.9387   13.3125 LP  0  0  0  0  0  0  0  0  0  0  0  0  # atno 27269 bound_to 10092
  225.0210   33.6448   11.7204 LP  0  0  0  0  0  0  0  0  0  0  0  0  # atno 27270 bound_to 10132
  223.4942   33.1958   11.0368 LP  0  0  0  0  0  0  0  0  0  0  0  0  # atno 27271 bound_to 10132
  221.3121   22.0751   11.7564 LP  0  0  0  0  0  0  0  0  0  0  0  0  # atno 27272 bound_to 11410
  221.4796   23.3844   10.6349 LP  0  0  0  0  0  0  0  0  0  0  0  0  # atno 27273 bound_to 11410
  221.3602   24.7303   10.6773 LP  0  0  0  0  0  0  0  0  0  0  0  0  # atno 27274 bound_to 17279
  228.5668   19.7414    6.1300 LP  0  0  0  0  0  0  0  0  0  0  0  0  # atno 27275 bound_to 16954
  227.1963   20.6240    6.2268 LP  0  0  0  0  0  0  0  0  0  0  0  0  # atno 27276 bound_to 16954
  221.2085   21.6805    9.6215 LP  0  0  0  0  0  0  0  0  0  0  0  0  # atno 27277 bound_to 11457
  223.1313   24.5184    6.8065 LP  0  0  0  0  0  0  0  0  0  0  0  0  # atno 27278 bound_to 11523
  225.8245   21.4753    5.3012 LP  0  0  0  0  0  0  0  0  0  0  0  0  # atno 27279 bound_to 11602
  226.6079   22.7944    4.4974 LP  0  0  0  0  0  0  0  0  0  0  0  0  # atno 27280 bound_to 11602
  224.1504   24.8975    4.8609 LP  0  0  0  0  0  0  0  0  0  0  0  0  # atno 27283 bound_to 11599
  221.6718   19.3799    8.7826 LP  0  0  0  0  0  0  0  0  0  0  0  0  # atno 27286 bound_to 11412
  221.1160   17.8768    9.0963 LP  0  0  0  0  0  0  0  0  0  0  0  0  # atno 27287 bound_to 11412
  234.4429   17.7992   11.6296 LP  0  0  0  0  0  0  0  0  0  0  0  0  # atno 27288 bound_to 18684
  233.9176   18.1713   10.0217 LP  0  0  0  0  0  0  0  0  0  0  0  0  # atno 27289 bound_to 18684

> <Gold.Score>
     Fitness  S(hb_ext) S(vdw_ext)  S(hb_int)    S(int)      intcor
     35.20       1.47      24.68       0.00      -0.20      -0.80

> <Gold.Goldscore.Fitness>
35.2004

> <Gold.Goldscore.Internal.Vdw>
-0.3797

> <Gold.Goldscore.Internal.Torsion>
-0.6192

> <Gold.Goldscore.External.Vdw>
24.6773

> <Gold.Goldscore.Internal.HBond>
0.0000

> <Gold.Goldscore.External.HBond>
1.4665

> <Gold.Goldscore.Internal.Correction>
-0.8016

> <Gold.Goldscore.Hbonds>
donor molecule, donor type, donor heavy atom, donor atom, acceptor molecule, acceptor atom, score
      P1  H 11464 11481       L1    17  0.11
      P1  H 19343 19392       L1    17  0.14
      L1  H    10    23       P1 19010  0.07

> <Gold.Goldscore.Internal.Vdw.Weighted>
-0.3797

> <Gold.Goldscore.Internal.Torsion.Weighted>
-0.6192

> <Gold.Goldscore.External.Vdw.Weighted>
33.9312

> <Gold.Goldscore.Internal.HBond.Weighted>
0.0000

> <Gold.Goldscore.External.HBond.Weighted>
1.4665

> <Gold.Goldscore.Internal.Correction.Weighted>
-0.8016

> <Gold.Rescore>
     Score     S(PLP)   S(hbond)     S(cho)   S(metal)  DE(clash)   DE(tors)     intcor
     30.11     -28.32       1.37       0.00       0.00       0.00       1.16       ----

> <Gold.PLP.Fitness>
30.1081

> <Gold.PLP.PLP>
-28.3206

> <Gold.PLP.part.hbond>
-5.1261

> <Gold.PLP.part.metal>
0.0000

> <Gold.PLP.part.buried>
-0.0835

> <Gold.PLP.part.nonpolar>
-28.3209

> <Gold.PLP.part.repulsive>
4.5674

> <Gold.PLP.ligand.clash>
0.0001

> <Gold.PLP.ligand.torsion>
1.1599

> <Gold.PLP.Chemscore.Hbond>
1.3691

> <Gold.PLP.Chemscore.CHOScore>
0.0000

> <Gold.PLP.Chemscore.Metal>
0.0000

> <Gold.Chemscore.Hbonds>
donor molecule, donor type, donor heavy atom, donor atom, acceptor molecule, acceptor atom, score
      P1  H 11691 11741       L1    17  0.35
      P1  H 19343 19392       L1    17  0.59

> <Gold.PLP.Chemscore.Internal.Correction>
   9.000000E+99

