#       Name:                CT1002167954
#       Creating user name   hitesit
#       Creation time:       Sun Apr 16 22:59:49 2023


#       File generated by GOLD software.
#

@<TRIPOS>MOLECULE
CT1002167954|ligand_prepared|mol2|1|dock3
    29    30     1
SMALL
NO_CHARGES


@<TRIPOS>ATOM
      1 C1         229.0669  25.1917  13.4941 C.3            1 RES1               0.0000
      2 C2         228.9936  23.8121  12.8085 C.ar           1 RES1               0.0000
      3 C3         230.4942  25.3365  14.0139 C.2            1 RES1               0.0000
      4 C4         228.6847  26.2167  12.4321 C.2            1 RES1               0.0000
      5 C5         228.0923  25.3506  14.6842 C.3            1 RES1               0.0000
      6 C6         228.3755  22.7381  13.4418 C.ar           1 RES1               0.0000
      7 C7         229.5361  23.5991  11.5440 C.ar           1 RES1               0.0000
      8 N8         231.3270  26.1851  13.3458 N.am           1 RES1               0.0000
      9 O9         230.8946  24.6861  14.9715 O.2            1 RES1               0.0000
     10 N10        229.6442  27.1050  12.0221 N.am           1 RES1               0.0000
     11 O11        227.5660  26.2525  11.9345 O.2            1 RES1               0.0000
     12 C12        227.9844  26.7762  15.2022 C.3            1 RES1               0.0000
     13 C13        228.2998  21.4968  12.8319 C.ar           1 RES1               0.0000
     14 C14        229.4595  22.3570  10.9360 C.ar           1 RES1               0.0000
     15 C15        230.9568  27.1158  12.4086 C.2            1 RES1               0.0000
     16 C16        228.8413  21.3055  11.5786 C.ar           1 RES1               0.0000
     17 O17        231.7730  27.9123  11.9542 O.2            1 RES1               0.0000
     18 H18        227.0965  25.0118  14.3727 H              1 RES1               0.0000
     19 H19        228.4263  24.7017  15.5032 H              1 RES1               0.0000
     20 H20        227.9458  22.8690  14.4294 H              1 RES1               0.0000
     21 H21        230.0281  24.4115  11.0200 H              1 RES1               0.0000
     22 H22        232.3165  26.1217  13.5630 H              1 RES1               0.0000
     23 H23        229.3530  27.8249  11.3685 H              1 RES1               0.0000
     24 H24        227.2882  26.8318  16.0364 H              1 RES1               0.0000
     25 H25        228.9523  27.1367  15.5440 H              1 RES1               0.0000
     26 H26        227.6304  27.4449  14.4202 H              1 RES1               0.0000
     27 H27        227.8134  20.6722  13.3425 H              1 RES1               0.0000
     28 H28        229.8876  22.2108   9.9498 H              1 RES1               0.0000
     29 H29        228.7816  20.3332  11.1009 H              1 RES1               0.0000
@<TRIPOS>BOND
    1    1    2 1     
    2    1    3 1     
    3    1    4 1     
    4    1    5 1     
    5    2    6 ar    
    6    2    7 ar    
    7    3    8 1     
    8    3    9 2     
    9    4   10 1     
   10    4   11 2     
   11    5   12 1     
   12    5   18 1     
   13    5   19 1     
   14    6   13 ar    
   15    6   20 1     
   16    7   14 ar    
   17    7   21 1     
   18    8   15 1     
   19    8   22 1     
   20   10   15 1     
   21   10   23 1     
   22   12   24 1     
   23   12   25 1     
   24   12   26 1     
   25   13   16 ar    
   26   13   27 1     
   27   14   16 ar    
   28   14   28 1     
   29   15   17 2     
   30   16   29 1     
@<TRIPOS>SUBSTRUCTURE
      1 RES1           1
@<TRIPOS>SET
DONOR_HYDROGENS      STATIC     ATOMS    <user>   **** ""
2 22 23
ATOM$RED        STATIC     ATOMS    COLORGROUP SYSTEM
2 22 23
@<TRIPOS>COMMENT
> <Gold.Version>
2022.3.0

> <Gold.Id.Protein>
unknown|4v3u_clean|pdb

> <Gold.Protein.RotatedTorsions>
[  594  544  543  542 ] final  -15.59 input   59.98 | X-H torsion
[  739  695  696  697 ] final  -71.57 input   98.51 | X-H torsion
[ 2556 2523 2524 2525 ] final  -27.81 input  111.11 | X-H torsion
[ 2627 2595 2596 2597 ] final   14.57 input   53.40 | X-H torsion
[ 26082 26043 26042 26040 ] final  -13.93 input   60.02 | X-H torsion
[ 27179 27119 27118 27114 ] final  158.96 input   60.01 | X-H torsion
[ 7426 7411 7412 7413 ] final  170.29 input   83.97 | X-H torsion
[ 7476 7453 7454 7455 ] final  178.35 input   94.79 | X-H torsion
[ 7522 7511 7512 7513 ] final  106.07 input   85.82 | X-H torsion
[ 17193 17173 17174 17175 ] final  -29.58 input   42.33 | X-H torsion
[ 17249 17217 17218 17219 ] final  158.83 input  107.71 | X-H torsion
[ 18293 18271 18272 18273 ] final  -99.93 input   26.15 | X-H torsion
[ 18325 18311 18312 18313 ] final  141.52 input   53.27 | X-H torsion
[ 18407 18359 18360 18361 ] final  164.73 input   33.85 | X-H torsion
[ 18493 18451 18452 18453 ] final  -18.97 input  113.35 | X-H torsion
[ 18561 18527 18528 18529 ] final   53.30 input   85.91 | X-H torsion
[ 18501 18462 18461 18459 ] final  -61.23 input   59.98 | X-H torsion
[ 18241 18201 18202 18203 ] final  150.02 input   44.19 | X-H torsion
[ 18297 18276 18275 18272 ] final   95.47 input   59.98 | X-H torsion
[ 10099 10092 10091 10088 ] final  134.82 input   59.98 | X-H torsion
[ 17301 17279 17280 17281 ] final  -11.40 input   44.55 | X-H torsion
[ 16993 16954 16953 16951 ] final   56.52 input   59.99 | X-H torsion
[ 11475 11457 11458 11459 ] final  -54.27 input   48.15 | X-H torsion
[ 11539 11523 11524 11525 ] final   26.55 input  117.79 | X-H torsion
[ 11615 11599 11600 11601 ] final  -71.59 input   58.98 | X-H torsion
[ 11423 11412 11411 11408 ] final   30.64 input   60.01 | X-H torsion
[ 27181 27121 27120 27118 ] final -173.23 input   60.02 | X-H torsion
[ 10139 10129 10130 10131 ] final   10.12 input   28.23 | X-H torsion
[ 17356 17327 17328 17329 ] final -110.60 input   73.50 | X-H torsion
[ 27201  698  697  696 ] final  -28.05 input    0.00 | X-H torsion
[ 27204 2526 2525 2524 ] final  -30.92 input    0.00 | X-H torsion
[ 27228 7328 7327 7326 ] final   -5.61 input    0.00 | X-H torsion
[ 27233 7514 7513 7512 ] final  -98.53 input    0.00 | X-H torsion
[ 27236 17124 17123 17122 ] final  -86.31 input    0.00 | X-H torsion
[ 27240 18204 18203 18202 ] final  -47.97 input    0.00 | X-H torsion
[ 27243 18274 18273 18272 ] final  137.62 input    0.00 | X-H torsion
[ 27246 18314 18313 18312 ] final   49.15 input   -0.00 | X-H torsion
[ 27249 18362 18361 18360 ] final   -5.98 input    0.00 | X-H torsion
[ 27257 17176 17175 17174 ] final  138.86 input   -0.00 | X-H torsion
[ 27259 17220 17219 17218 ] final -114.28 input   -0.00 | X-H torsion
[ 27261 17050 17049 17048 ] final -127.02 input    0.00 | X-H torsion
[ 27270 10132 10131 10130 ] final  -73.81 input    0.00 | X-H torsion
[ 27272 11410 11409 11408 ] final -100.62 input   -0.00 | X-H torsion
[ 27279 11602 11601 11600 ] final -134.42 input    0.00 | X-H torsion
[ 27288 18684 18683 18682 ] final  -43.05 input   -0.00 | X-H torsion

> <Gold.Protein.ActiveResidues>
 LYS309  TRP311  GLU314  MET341  HIS342  TRP414  ALA417  ARG419  CYS420  VAL421 
 GLY422  ARG423  LEU460  SER462  ALA463  SER482  GLN483  LEU484  ILE485  ARG486 
 ALA502  TRP566  TYR567  LEU569  PRO570  ALA571  VAL572  SER573  ASN574  MET575 
 PHE589  SER590  GLY591  TRP592  TYR593  MET594  GLU597  ILE598  ARG601  ASP602 
 ASP605  ARG608  TRP683  PHE696  HIS697  GLU699  TYR711  ASP714  HEM750  H4B760 

> <Gold.Protein.RotatedAtoms>
  220.4335    8.7261   19.4579 H   0  0  0  0  0  0  0  0  0  0  0  0  # atno 594  bound_to 544 
  221.1911    8.4566   18.0087 H   0  0  0  0  0  0  0  0  0  0  0  0  # atno 595  bound_to 544 
  219.9796    7.4430   18.5121 H   0  0  0  0  0  0  0  0  0  0  0  0  # atno 596  bound_to 544 
  226.9695    6.3145   20.1719 H   0  0  0  0  0  0  0  0  0  0  0  0  # atno 739  bound_to 695 
  224.5922   14.0633   26.4034 H   0  0  0  0  0  0  0  0  0  0  0  0  # atno 2556 bound_to 2523
  222.6330   14.2789   25.5547 H   0  0  0  0  0  0  0  0  0  0  0  0  # atno 2627 bound_to 2595
  229.0607   26.3390   21.9722 H   0  0  0  0  0  0  0  0  0  0  0  0  # atno 7426 bound_to 7411
  232.7382   26.5364   20.8981 H   0  0  0  0  0  0  0  0  0  0  0  0  # atno 7476 bound_to 7453
  233.0469   28.9956   18.9806 H   0  0  0  0  0  0  0  0  0  0  0  0  # atno 7522 bound_to 7511
  230.9005   35.9748   13.2469 H   0  0  0  0  0  0  0  0  0  0  0  0  # atno 10099 bound_to 10092
  226.3906   34.6510   11.1590 H   0  0  0  0  0  0  0  0  0  0  0  0  # atno 10139 bound_to 10129
  221.9031   19.4370    8.9502 H   0  0  0  0  0  0  0  0  0  0  0  0  # atno 11423 bound_to 11412
  220.5064   21.9219    8.7240 H   0  0  0  0  0  0  0  0  0  0  0  0  # atno 11475 bound_to 11457
  223.0487   24.1906    6.6840 H   0  0  0  0  0  0  0  0  0  0  0  0  # atno 11539 bound_to 11523
  222.7685   23.8792    4.6802 H   0  0  0  0  0  0  0  0  0  0  0  0  # atno 11615 bound_to 11599
  227.3548   21.0468    6.5692 H   0  0  0  0  0  0  0  0  0  0  0  0  # atno 16993 bound_to 16954
  226.7692   25.7576    9.0626 H   0  0  0  0  0  0  0  0  0  0  0  0  # atno 17193 bound_to 17173
  225.1039   26.2886   11.2897 H   0  0  0  0  0  0  0  0  0  0  0  0  # atno 17249 bound_to 17217
  220.9527   24.5022   12.1723 H   0  0  0  0  0  0  0  0  0  0  0  0  # atno 17301 bound_to 17279
  218.4218   24.5236   11.9779 H   0  0  0  0  0  0  0  0  0  0  0  0  # atno 17356 bound_to 17327
  221.0109   30.2042   12.3499 H   0  0  0  0  0  0  0  0  0  0  0  0  # atno 18241 bound_to 18201
  224.8143   30.9210   12.0116 H   0  0  0  0  0  0  0  0  0  0  0  0  # atno 18293 bound_to 18271
  226.9590   32.5591    8.2477 H   0  0  0  0  0  0  0  0  0  0  0  0  # atno 18297 bound_to 18276
  228.2271   30.7232   11.8467 H   0  0  0  0  0  0  0  0  0  0  0  0  # atno 18325 bound_to 18311
  231.7887   31.6990   10.4626 H   0  0  0  0  0  0  0  0  0  0  0  0  # atno 18407 bound_to 18359
  234.4799   28.8893    9.9994 H   0  0  0  0  0  0  0  0  0  0  0  0  # atno 18493 bound_to 18451
  230.9092   21.4622    7.7940 H   0  0  0  0  0  0  0  0  0  0  0  0  # atno 18501 bound_to 18462
  235.2992   25.3567   11.9567 H   0  0  0  0  0  0  0  0  0  0  0  0  # atno 18561 bound_to 18527
  224.4573   20.0744   20.2777 H   0  0  0  0  0  0  0  0  0  0  0  0  # atno 26082 bound_to 26043
  230.6068   11.3942   21.5810 H   0  0  0  0  0  0  0  0  0  0  0  0  # atno 27179 bound_to 27119
  229.7946   13.5232   25.3909 H   0  0  0  0  0  0  0  0  0  0  0  0  # atno 27181 bound_to 27121
  227.8232    7.7852   20.5639 LP  0  0  0  0  0  0  0  0  0  0  0  0  # atno 27200 bound_to 695 
  226.0066    7.9440   16.2268 LP  0  0  0  0  0  0  0  0  0  0  0  0  # atno 27201 bound_to 698 
  227.5715    7.6956   15.5273 LP  0  0  0  0  0  0  0  0  0  0  0  0  # atno 27202 bound_to 698 
  225.4744   13.1256   25.2251 LP  0  0  0  0  0  0  0  0  0  0  0  0  # atno 27203 bound_to 2523
  224.2597   17.5345   24.8355 LP  0  0  0  0  0  0  0  0  0  0  0  0  # atno 27204 bound_to 2526
  222.6103   17.4910   24.3088 LP  0  0  0  0  0  0  0  0  0  0  0  0  # atno 27205 bound_to 2526
  222.9732   15.4133   24.2662 LP  0  0  0  0  0  0  0  0  0  0  0  0  # atno 27206 bound_to 2595
  224.3564   19.3903   21.7510 LP  0  0  0  0  0  0  0  0  0  0  0  0  # atno 27210 bound_to 26043
  224.4187   21.0155   21.6049 LP  0  0  0  0  0  0  0  0  0  0  0  0  # atno 27211 bound_to 26043
  231.6434   12.5804   21.1711 LP  0  0  0  0  0  0  0  0  0  0  0  0  # atno 27214 bound_to 27119
  230.2487   12.3892   20.3435 LP  0  0  0  0  0  0  0  0  0  0  0  0  # atno 27215 bound_to 27119
  230.9102   23.6317   21.5972 LP  0  0  0  0  0  0  0  0  0  0  0  0  # atno 27228 bound_to 7328
  231.2027   25.0108   20.5910 LP  0  0  0  0  0  0  0  0  0  0  0  0  # atno 27229 bound_to 7328
  230.5572   26.4632   22.8608 LP  0  0  0  0  0  0  0  0  0  0  0  0  # atno 27230 bound_to 7411
  232.4255   27.9831   19.9681 LP  0  0  0  0  0  0  0  0  0  0  0  0  # atno 27231 bound_to 7453
  234.2930   29.4994   20.0956 LP  0  0  0  0  0  0  0  0  0  0  0  0  # atno 27232 bound_to 7511
  233.9652   33.8896   18.4349 LP  0  0  0  0  0  0  0  0  0  0  0  0  # atno 27233 bound_to 7514
  232.4535   33.2706   17.8592 LP  0  0  0  0  0  0  0  0  0  0  0  0  # atno 27234 bound_to 7514
  228.0230   28.0848   10.4531 LP  0  0  0  0  0  0  0  0  0  0  0  0  # atno 27236 bound_to 17124
  227.6743   29.0697    9.0717 LP  0  0  0  0  0  0  0  0  0  0  0  0  # atno 27237 bound_to 17124
  226.9458   26.9645    7.8131 LP  0  0  0  0  0  0  0  0  0  0  0  0  # atno 27238 bound_to 17173
  223.8281   26.8827   10.2453 LP  0  0  0  0  0  0  0  0  0  0  0  0  # atno 27239 bound_to 17217
  223.9899   28.6669   11.8623 LP  0  0  0  0  0  0  0  0  0  0  0  0  # atno 27240 bound_to 18204
  224.6459   29.0088   10.2962 LP  0  0  0  0  0  0  0  0  0  0  0  0  # atno 27241 bound_to 18204
  224.7135   32.1646   10.7938 LP  0  0  0  0  0  0  0  0  0  0  0  0  # atno 27242 bound_to 18271
  227.9327   33.3427   11.9783 LP  0  0  0  0  0  0  0  0  0  0  0  0  # atno 27243 bound_to 18274
  226.8944   33.4942   10.6002 LP  0  0  0  0  0  0  0  0  0  0  0  0  # atno 27244 bound_to 18274
  228.4088   30.9358   10.1192 LP  0  0  0  0  0  0  0  0  0  0  0  0  # atno 27245 bound_to 18311
  230.5010   32.4987    8.7312 LP  0  0  0  0  0  0  0  0  0  0  0  0  # atno 27246 bound_to 18314
  230.9007   30.8601    8.3371 LP  0  0  0  0  0  0  0  0  0  0  0  0  # atno 27247 bound_to 18314
  231.7806   30.2465   11.4370 LP  0  0  0  0  0  0  0  0  0  0  0  0  # atno 27248 bound_to 18359
  233.3692   29.5247   12.1853 LP  0  0  0  0  0  0  0  0  0  0  0  0  # atno 27249 bound_to 18362
  234.0256   27.9307   12.0172 LP  0  0  0  0  0  0  0  0  0  0  0  0  # atno 27250 bound_to 18362
  233.6134   27.9909    8.7774 LP  0  0  0  0  0  0  0  0  0  0  0  0  # atno 27251 bound_to 18451
  235.9797   26.9292   11.6134 LP  0  0  0  0  0  0  0  0  0  0  0  0  # atno 27252 bound_to 18527
  223.3734   24.6016    9.2493 LP  0  0  0  0  0  0  0  0  0  0  0  0  # atno 27257 bound_to 17176
  223.1274   25.9070    8.1377 LP  0  0  0  0  0  0  0  0  0  0  0  0  # atno 27258 bound_to 17176
  220.9056   27.5925   12.4516 LP  0  0  0  0  0  0  0  0  0  0  0  0  # atno 27259 bound_to 17220
  221.8169   27.8812   11.0073 LP  0  0  0  0  0  0  0  0  0  0  0  0  # atno 27260 bound_to 17220
  227.2490   26.2589    5.9903 LP  0  0  0  0  0  0  0  0  0  0  0  0  # atno 27261 bound_to 17050
  228.3183   25.7359    4.7321 LP  0  0  0  0  0  0  0  0  0  0  0  0  # atno 27262 bound_to 17050
  230.3108   22.6020    6.7987 LP  0  0  0  0  0  0  0  0  0  0  0  0  # atno 27263 bound_to 18462
  229.8922   22.5907    8.3770 LP  0  0  0  0  0  0  0  0  0  0  0  0  # atno 27264 bound_to 18462
  221.8017   29.6240   10.9021 LP  0  0  0  0  0  0  0  0  0  0  0  0  # atno 27265 bound_to 18201
  225.6904   32.7635    9.2468 LP  0  0  0  0  0  0  0  0  0  0  0  0  # atno 27266 bound_to 18276
  225.4628   32.1590    7.7470 LP  0  0  0  0  0  0  0  0  0  0  0  0  # atno 27267 bound_to 18276
  230.7905   35.2751   11.7820 LP  0  0  0  0  0  0  0  0  0  0  0  0  # atno 27268 bound_to 10092
  230.2851   34.4745   13.1125 LP  0  0  0  0  0  0  0  0  0  0  0  0  # atno 27269 bound_to 10092
  224.1954   33.2897   10.5247 LP  0  0  0  0  0  0  0  0  0  0  0  0  # atno 27270 bound_to 10132
  224.3197   33.5508   12.2325 LP  0  0  0  0  0  0  0  0  0  0  0  0  # atno 27271 bound_to 10132
  220.8585   23.3273   10.8726 LP  0  0  0  0  0  0  0  0  0  0  0  0  # atno 27272 bound_to 11410
  221.9331   22.1323   11.5187 LP  0  0  0  0  0  0  0  0  0  0  0  0  # atno 27273 bound_to 11410
  221.5487   25.4523   10.8361 LP  0  0  0  0  0  0  0  0  0  0  0  0  # atno 27274 bound_to 17279
  228.9081   20.6942    6.9015 LP  0  0  0  0  0  0  0  0  0  0  0  0  # atno 27275 bound_to 16954
  228.0381   19.7197    5.9216 LP  0  0  0  0  0  0  0  0  0  0  0  0  # atno 27276 bound_to 16954
  221.9053   20.8811    8.8979 LP  0  0  0  0  0  0  0  0  0  0  0  0  # atno 27277 bound_to 11457
  221.5794   24.7542    7.4406 LP  0  0  0  0  0  0  0  0  0  0  0  0  # atno 27278 bound_to 11523
  226.6523   21.5663    4.4129 LP  0  0  0  0  0  0  0  0  0  0  0  0  # atno 27279 bound_to 11602
  225.7801   22.7034    5.3856 LP  0  0  0  0  0  0  0  0  0  0  0  0  # atno 27280 bound_to 11602
  224.0528   25.0616    4.6861 LP  0  0  0  0  0  0  0  0  0  0  0  0  # atno 27283 bound_to 11599
  221.0130   18.0750    8.9076 LP  0  0  0  0  0  0  0  0  0  0  0  0  # atno 27286 bound_to 11412
  222.2912   18.1871    9.9177 LP  0  0  0  0  0  0  0  0  0  0  0  0  # atno 27287 bound_to 11412
  234.5061   17.7625   11.5965 LP  0  0  0  0  0  0  0  0  0  0  0  0  # atno 27288 bound_to 18684
  233.8543   18.2080   10.0548 LP  0  0  0  0  0  0  0  0  0  0  0  0  # atno 27289 bound_to 18684

> <Gold.Score>
     Fitness  S(hb_ext) S(vdw_ext)  S(hb_int)    S(int)      intcor
     44.37       2.55      30.84       0.00      -0.58      -0.77

> <Gold.Goldscore.Fitness>
44.3694

> <Gold.Goldscore.Internal.Vdw>
-0.8211

> <Gold.Goldscore.Internal.Torsion>
-0.5276

> <Gold.Goldscore.External.Vdw>
30.8415

> <Gold.Goldscore.Internal.HBond>
0.0000

> <Gold.Goldscore.External.HBond>
2.5457

> <Gold.Goldscore.Internal.Correction>
-0.7653

> <Gold.Goldscore.Hbonds>
donor molecule, donor type, donor heavy atom, donor atom, acceptor molecule, acceptor atom, score
      P1  H 17217 17249       L1    11  1.00
      L1  H     8    22       P1 18689  0.02
      L1  H    10    23       P1 17124  0.22

> <Gold.Goldscore.Internal.Vdw.Weighted>
-0.8211

> <Gold.Goldscore.Internal.Torsion.Weighted>
-0.5276

> <Gold.Goldscore.External.Vdw.Weighted>
42.4071

> <Gold.Goldscore.Internal.HBond.Weighted>
0.0000

> <Gold.Goldscore.External.HBond.Weighted>
2.5457

> <Gold.Goldscore.Internal.Correction.Weighted>
-0.7653

> <Gold.Rescore>
     Score     S(PLP)   S(hbond)     S(cho)   S(metal)  DE(clash)   DE(tors)     intcor
     29.44     -27.55       1.54       0.00       0.00       0.00       1.37       ----

> <Gold.PLP.Fitness>
29.4360

> <Gold.PLP.PLP>
-27.5532

> <Gold.PLP.part.hbond>
-4.1322

> <Gold.PLP.part.metal>
0.0000

> <Gold.PLP.part.buried>
11.2242

> <Gold.PLP.part.nonpolar>
-39.3177

> <Gold.PLP.part.repulsive>
2.8981

> <Gold.PLP.ligand.clash>
0.0000

> <Gold.PLP.ligand.torsion>
1.3746

> <Gold.PLP.Chemscore.Hbond>
1.5440

> <Gold.PLP.Chemscore.CHOScore>
0.0000

> <Gold.PLP.Chemscore.Metal>
0.0000

> <Gold.Chemscore.Hbonds>
donor molecule, donor type, donor heavy atom, donor atom, acceptor molecule, acceptor atom, score
      L1  H     8    22       P1 18689  0.62
      L1  H    10    23       P1 17124  0.05

> <Gold.PLP.Chemscore.Internal.Correction>
   9.000000E+99

