#       Name:                CT1002167954
#       Creating user name   hitesit
#       Creation time:       Sun Apr 16 22:59:52 2023


#       File generated by GOLD software.
#

@<TRIPOS>MOLECULE
CT1002167954|ligand_prepared|mol2|1|dock7
    29    30     1
SMALL
NO_CHARGES


@<TRIPOS>ATOM
      1 C1         229.4064  19.8568  12.4009 C.3            1 RES1               0.0000
      2 C2         228.1416  20.5005  13.0049 C.ar           1 RES1               0.0000
      3 C3         229.0165  18.4357  12.0049 C.2            1 RES1               0.0000
      4 C4         229.8154  20.7397  11.2270 C.2            1 RES1               0.0000
      5 C5         230.5995  19.7834  13.3820 C.3            1 RES1               0.0000
      6 C6         228.2323  21.6616  13.7667 C.ar           1 RES1               0.0000
      7 C7         226.8793  19.9474  12.8070 C.ar           1 RES1               0.0000
      8 N8         228.8589  18.1707  10.6764 N.am           1 RES1               0.0000
      9 O9         228.8117  17.5709  12.8478 O.2            1 RES1               0.0000
     10 N10        229.7444  20.2060   9.9669 N.am           1 RES1               0.0000
     11 O11        230.1827  21.8980  11.3806 O.2            1 RES1               0.0000
     12 C12        231.7998  19.0288  12.8324 C.3            1 RES1               0.0000
     13 C13        227.1017  22.2501  14.3087 C.ar           1 RES1               0.0000
     14 C14        225.7500  20.5374  13.3501 C.ar           1 RES1               0.0000
     15 C15        229.2555  18.9717   9.6358 C.2            1 RES1               0.0000
     16 C16        225.8599  21.6888  14.1005 C.ar           1 RES1               0.0000
     17 O17        229.1729  18.5833   8.4741 O.2            1 RES1               0.0000
     18 H18        230.9105  20.8041  13.6367 H              1 RES1               0.0000
     19 H19        230.2675  19.2938  14.3058 H              1 RES1               0.0000
     20 H20        229.2013  22.1163  13.9434 H              1 RES1               0.0000
     21 H21        226.7690  19.0413  12.2210 H              1 RES1               0.0000
     22 H22        228.4042  17.2961  10.4343 H              1 RES1               0.0000
     23 H23        230.0879  20.7822   9.2052 H              1 RES1               0.0000
     24 H24        232.6081  19.0071  13.5603 H              1 RES1               0.0000
     25 H25        231.5327  18.0019  12.5919 H              1 RES1               0.0000
     26 H26        232.1719  19.5032  11.9267 H              1 RES1               0.0000
     27 H27        227.1937  23.1554  14.8996 H              1 RES1               0.0000
     28 H28        224.7747  20.0918  13.1841 H              1 RES1               0.0000
     29 H29        224.9743  22.1502  14.5248 H              1 RES1               0.0000
@<TRIPOS>BOND
    1    1    2 1     
    2    1    3 1     
    3    1    4 1     
    4    1    5 1     
    5    2    6 ar    
    6    2    7 ar    
    7    3    8 1     
    8    3    9 2     
    9    4   10 1     
   10    4   11 2     
   11    5   12 1     
   12    5   18 1     
   13    5   19 1     
   14    6   13 ar    
   15    6   20 1     
   16    7   14 ar    
   17    7   21 1     
   18    8   15 1     
   19    8   22 1     
   20   10   15 1     
   21   10   23 1     
   22   12   24 1     
   23   12   25 1     
   24   12   26 1     
   25   13   16 ar    
   26   13   27 1     
   27   14   16 ar    
   28   14   28 1     
   29   15   17 2     
   30   16   29 1     
@<TRIPOS>SUBSTRUCTURE
      1 RES1           1
@<TRIPOS>SET
DONOR_HYDROGENS      STATIC     ATOMS    <user>   **** ""
2 22 23
ATOM$RED        STATIC     ATOMS    COLORGROUP SYSTEM
2 22 23
@<TRIPOS>COMMENT
> <Gold.Version>
2022.3.0

> <Gold.Id.Protein>
unknown|4v3u_clean|pdb

> <Gold.Protein.RotatedTorsions>
[  594  544  543  542 ] final -119.48 input   59.98 | X-H torsion
[  739  695  696  697 ] final   90.40 input   98.51 | X-H torsion
[ 2556 2523 2524 2525 ] final  -61.65 input  111.11 | X-H torsion
[ 2627 2595 2596 2597 ] final  141.24 input   53.40 | X-H torsion
[ 26082 26043 26042 26040 ] final   18.82 input   60.02 | X-H torsion
[ 27179 27119 27118 27114 ] final  105.32 input   60.01 | X-H torsion
[ 7426 7411 7412 7413 ] final  -31.25 input   83.97 | X-H torsion
[ 7476 7453 7454 7455 ] final -154.35 input   94.79 | X-H torsion
[ 7522 7511 7512 7513 ] final   52.71 input   85.82 | X-H torsion
[ 17193 17173 17174 17175 ] final -156.53 input   42.33 | X-H torsion
[ 17249 17217 17218 17219 ] final -175.60 input  107.71 | X-H torsion
[ 18293 18271 18272 18273 ] final   13.09 input   26.15 | X-H torsion
[ 18325 18311 18312 18313 ] final -130.12 input   53.27 | X-H torsion
[ 18407 18359 18360 18361 ] final  164.37 input   33.85 | X-H torsion
[ 18493 18451 18452 18453 ] final  125.52 input  113.35 | X-H torsion
[ 18561 18527 18528 18529 ] final  -21.48 input   85.91 | X-H torsion
[ 18501 18462 18461 18459 ] final -113.69 input   59.98 | X-H torsion
[ 18241 18201 18202 18203 ] final -165.95 input   44.19 | X-H torsion
[ 18297 18276 18275 18272 ] final -134.39 input   59.98 | X-H torsion
[ 10099 10092 10091 10088 ] final  128.57 input   59.98 | X-H torsion
[ 17301 17279 17280 17281 ] final  -87.53 input   44.55 | X-H torsion
[ 16993 16954 16953 16951 ] final   97.08 input   59.99 | X-H torsion
[ 11475 11457 11458 11459 ] final   86.49 input   48.15 | X-H torsion
[ 11539 11523 11524 11525 ] final   74.38 input  117.79 | X-H torsion
[ 11615 11599 11600 11601 ] final    0.52 input   58.98 | X-H torsion
[ 11423 11412 11411 11408 ] final  -40.50 input   60.01 | X-H torsion
[ 27181 27121 27120 27118 ] final   52.25 input   60.02 | X-H torsion
[ 10139 10129 10130 10131 ] final   15.15 input   28.23 | X-H torsion
[ 17356 17327 17328 17329 ] final -118.09 input   73.50 | X-H torsion
[ 27201  698  697  696 ] final   59.37 input    0.00 | X-H torsion
[ 27204 2526 2525 2524 ] final -114.14 input    0.00 | X-H torsion
[ 27228 7328 7327 7326 ] final  -76.34 input    0.00 | X-H torsion
[ 27233 7514 7513 7512 ] final -155.24 input    0.00 | X-H torsion
[ 27236 17124 17123 17122 ] final    9.39 input    0.00 | X-H torsion
[ 27240 18204 18203 18202 ] final  146.21 input    0.00 | X-H torsion
[ 27243 18274 18273 18272 ] final    7.92 input    0.00 | X-H torsion
[ 27246 18314 18313 18312 ] final -104.92 input   -0.00 | X-H torsion
[ 27249 18362 18361 18360 ] final  104.80 input    0.00 | X-H torsion
[ 27257 17176 17175 17174 ] final    9.60 input   -0.00 | X-H torsion
[ 27259 17220 17219 17218 ] final -108.64 input   -0.00 | X-H torsion
[ 27261 17050 17049 17048 ] final  -11.60 input    0.00 | X-H torsion
[ 27270 10132 10131 10130 ] final  152.88 input    0.00 | X-H torsion
[ 27272 11410 11409 11408 ] final   96.75 input   -0.00 | X-H torsion
[ 27279 11602 11601 11600 ] final  -85.77 input    0.00 | X-H torsion
[ 27288 18684 18683 18682 ] final   50.65 input   -0.00 | X-H torsion

> <Gold.Protein.ActiveResidues>
 LYS309  TRP311  GLU314  MET341  HIS342  TRP414  ALA417  ARG419  CYS420  VAL421 
 GLY422  ARG423  LEU460  SER462  ALA463  SER482  GLN483  LEU484  ILE485  ARG486 
 ALA502  TRP566  TYR567  LEU569  PRO570  ALA571  VAL572  SER573  ASN574  MET575 
 PHE589  SER590  GLY591  TRP592  TYR593  MET594  GLU597  ILE598  ARG601  ASP602 
 ASP605  ARG608  TRP683  PHE696  HIS697  GLU699  TYR711  ASP714  HEM750  H4B760 

> <Gold.Protein.RotatedAtoms>
  219.8804    7.5159   18.7496 H   0  0  0  0  0  0  0  0  0  0  0  0  # atno 594  bound_to 544 
  220.6309    8.8679   19.3458 H   0  0  0  0  0  0  0  0  0  0  0  0  # atno 595  bound_to 544 
  221.0926    8.2407   17.8823 H   0  0  0  0  0  0  0  0  0  0  0  0  # atno 596  bound_to 544 
  228.0310    7.6644   20.4326 H   0  0  0  0  0  0  0  0  0  0  0  0  # atno 739  bound_to 695 
  225.0827   14.2064   26.4361 H   0  0  0  0  0  0  0  0  0  0  0  0  # atno 2556 bound_to 2523
  222.6086   14.7551   24.0392 H   0  0  0  0  0  0  0  0  0  0  0  0  # atno 2627 bound_to 2595
  230.6043   26.1692   22.7272 H   0  0  0  0  0  0  0  0  0  0  0  0  # atno 7426 bound_to 7411
  232.5899   26.8055   21.1813 H   0  0  0  0  0  0  0  0  0  0  0  0  # atno 7476 bound_to 7453
  232.8166   29.4406   19.5939 H   0  0  0  0  0  0  0  0  0  0  0  0  # atno 7522 bound_to 7511
  230.9306   36.0204   13.1608 H   0  0  0  0  0  0  0  0  0  0  0  0  # atno 10099 bound_to 10092
  226.3949   34.6265   11.0857 H   0  0  0  0  0  0  0  0  0  0  0  0  # atno 10139 bound_to 10129
  221.0955   18.7886    8.6111 H   0  0  0  0  0  0  0  0  0  0  0  0  # atno 11423 bound_to 11412
  221.7352   20.8406    8.3345 H   0  0  0  0  0  0  0  0  0  0  0  0  # atno 11475 bound_to 11457
  223.1020   24.8431    6.9700 H   0  0  0  0  0  0  0  0  0  0  0  0  # atno 11539 bound_to 11523
  223.6290   23.8420    5.2562 H   0  0  0  0  0  0  0  0  0  0  0  0  # atno 11615 bound_to 11599
  227.2094   20.5496    6.1785 H   0  0  0  0  0  0  0  0  0  0  0  0  # atno 16993 bound_to 16954
  227.2929   27.1318    8.4913 H   0  0  0  0  0  0  0  0  0  0  0  0  # atno 17193 bound_to 17173
  225.0966   26.0202   10.9990 H   0  0  0  0  0  0  0  0  0  0  0  0  # atno 17249 bound_to 17217
  221.2737   25.5365   12.1792 H   0  0  0  0  0  0  0  0  0  0  0  0  # atno 17301 bound_to 17279
  218.4354   24.4371   11.9036 H   0  0  0  0  0  0  0  0  0  0  0  0  # atno 17356 bound_to 17327
  220.8400   30.5579   11.8139 H   0  0  0  0  0  0  0  0  0  0  0  0  # atno 18241 bound_to 18201
  225.1714   32.2858   11.6313 H   0  0  0  0  0  0  0  0  0  0  0  0  # atno 18293 bound_to 18271
  225.3471   32.1843    7.8637 H   0  0  0  0  0  0  0  0  0  0  0  0  # atno 18297 bound_to 18276
  227.8949   31.6084   11.0462 H   0  0  0  0  0  0  0  0  0  0  0  0  # atno 18325 bound_to 18311
  231.7929   31.7010   10.4656 H   0  0  0  0  0  0  0  0  0  0  0  0  # atno 18407 bound_to 18359
  234.0870   28.1090    8.5635 H   0  0  0  0  0  0  0  0  0  0  0  0  # atno 18493 bound_to 18451
  230.8901   21.7622    7.0233 H   0  0  0  0  0  0  0  0  0  0  0  0  # atno 18501 bound_to 18462
  235.8045   25.6669   11.0621 H   0  0  0  0  0  0  0  0  0  0  0  0  # atno 18561 bound_to 18527
  224.4690   20.5922   20.3804 H   0  0  0  0  0  0  0  0  0  0  0  0  # atno 26082 bound_to 26043
  231.3426   11.7783   21.7406 H   0  0  0  0  0  0  0  0  0  0  0  0  # atno 27179 bound_to 27119
  228.6700   13.9149   24.1395 H   0  0  0  0  0  0  0  0  0  0  0  0  # atno 27181 bound_to 27121
  226.7781    6.4561   20.3073 LP  0  0  0  0  0  0  0  0  0  0  0  0  # atno 27200 bound_to 695 
  226.9628    8.6462   16.0690 LP  0  0  0  0  0  0  0  0  0  0  0  0  # atno 27201 bound_to 698 
  226.6152    6.9934   15.6851 LP  0  0  0  0  0  0  0  0  0  0  0  0  # atno 27202 bound_to 698 
  224.9915   12.9848   25.1929 LP  0  0  0  0  0  0  0  0  0  0  0  0  # atno 27203 bound_to 2523
  223.2700   17.5714   25.4203 LP  0  0  0  0  0  0  0  0  0  0  0  0  # atno 27204 bound_to 2526
  223.6000   17.4541   23.7240 LP  0  0  0  0  0  0  0  0  0  0  0  0  # atno 27205 bound_to 2526
  222.9968   14.9521   25.7342 LP  0  0  0  0  0  0  0  0  0  0  0  0  # atno 27206 bound_to 2595
  224.3780   19.2185   21.2485 LP  0  0  0  0  0  0  0  0  0  0  0  0  # atno 27210 bound_to 26043
  224.3852   20.6661   22.0041 LP  0  0  0  0  0  0  0  0  0  0  0  0  # atno 27211 bound_to 26043
  231.1471   12.8581   20.5385 LP  0  0  0  0  0  0  0  0  0  0  0  0  # atno 27214 bound_to 27119
  230.0044   11.7249   20.8155 LP  0  0  0  0  0  0  0  0  0  0  0  0  # atno 27215 bound_to 27119
  231.6860   24.2604   21.6857 LP  0  0  0  0  0  0  0  0  0  0  0  0  # atno 27228 bound_to 7328
  230.4269   24.3820   20.5026 LP  0  0  0  0  0  0  0  0  0  0  0  0  # atno 27229 bound_to 7328
  229.0361   26.6305   22.1169 LP  0  0  0  0  0  0  0  0  0  0  0  0  # atno 27230 bound_to 7411
  232.5701   27.7207   19.6920 LP  0  0  0  0  0  0  0  0  0  0  0  0  # atno 27231 bound_to 7453
  234.5187   29.0632   19.4944 LP  0  0  0  0  0  0  0  0  0  0  0  0  # atno 27232 bound_to 7511
  233.2832   34.0680   18.8587 LP  0  0  0  0  0  0  0  0  0  0  0  0  # atno 27233 bound_to 7514
  233.1355   33.0921   17.4354 LP  0  0  0  0  0  0  0  0  0  0  0  0  # atno 27234 bound_to 7514
  228.6685   28.6362    9.4897 LP  0  0  0  0  0  0  0  0  0  0  0  0  # atno 27236 bound_to 17124
  227.0288   28.5182   10.0351 LP  0  0  0  0  0  0  0  0  0  0  0  0  # atno 27237 bound_to 17124
  226.4323   25.6170    8.3733 LP  0  0  0  0  0  0  0  0  0  0  0  0  # atno 27238 bound_to 17173
  223.8351   27.1405   10.5244 LP  0  0  0  0  0  0  0  0  0  0  0  0  # atno 27239 bound_to 17217
  224.8315   29.0040   10.4021 LP  0  0  0  0  0  0  0  0  0  0  0  0  # atno 27240 bound_to 18204
  223.8043   28.6717   11.7565 LP  0  0  0  0  0  0  0  0  0  0  0  0  # atno 27241 bound_to 18204
  224.3599   30.8132   11.1703 LP  0  0  0  0  0  0  0  0  0  0  0  0  # atno 27242 bound_to 18271
  226.5532   33.3367   11.2332 LP  0  0  0  0  0  0  0  0  0  0  0  0  # atno 27243 bound_to 18274
  228.2739   33.5001   11.3453 LP  0  0  0  0  0  0  0  0  0  0  0  0  # atno 27244 bound_to 18274
  228.7306   30.0782   10.8947 LP  0  0  0  0  0  0  0  0  0  0  0  0  # atno 27245 bound_to 18311
  230.5184   30.8428    8.4043 LP  0  0  0  0  0  0  0  0  0  0  0  0  # atno 27246 bound_to 18314
  230.8833   32.5160    8.6640 LP  0  0  0  0  0  0  0  0  0  0  0  0  # atno 27247 bound_to 18314
  231.7765   30.2446   11.4340 LP  0  0  0  0  0  0  0  0  0  0  0  0  # atno 27248 bound_to 18359
  233.0645   28.1398   12.0400 LP  0  0  0  0  0  0  0  0  0  0  0  0  # atno 27249 bound_to 18362
  234.3303   29.3157   12.1626 LP  0  0  0  0  0  0  0  0  0  0  0  0  # atno 27250 bound_to 18362
  233.9983   28.7552   10.1840 LP  0  0  0  0  0  0  0  0  0  0  0  0  # atno 27251 bound_to 18451
  235.4858   26.6260   12.4878 LP  0  0  0  0  0  0  0  0  0  0  0  0  # atno 27252 bound_to 18527
  223.7193   25.4807    8.0015 LP  0  0  0  0  0  0  0  0  0  0  0  0  # atno 27257 bound_to 17176
  222.7815   25.0279    9.3855 LP  0  0  0  0  0  0  0  0  0  0  0  0  # atno 27258 bound_to 17176
  220.9779   27.6053   12.4948 LP  0  0  0  0  0  0  0  0  0  0  0  0  # atno 27259 bound_to 17220
  221.7446   27.8685   10.9641 LP  0  0  0  0  0  0  0  0  0  0  0  0  # atno 27260 bound_to 17220
  227.6768   26.3886    4.5960 LP  0  0  0  0  0  0  0  0  0  0  0  0  # atno 27261 bound_to 17050
  227.8904   25.6062    6.1265 LP  0  0  0  0  0  0  0  0  0  0  0  0  # atno 27262 bound_to 17050
  229.8679   22.9708    7.4005 LP  0  0  0  0  0  0  0  0  0  0  0  0  # atno 27263 bound_to 18462
  230.3543   21.9196    8.5516 LP  0  0  0  0  0  0  0  0  0  0  0  0  # atno 27264 bound_to 18462
  221.9679   29.2798   11.4235 LP  0  0  0  0  0  0  0  0  0  0  0  0  # atno 27265 bound_to 18201
  226.9270   32.4995    8.0958 LP  0  0  0  0  0  0  0  0  0  0  0  0  # atno 27266 bound_to 18276
  225.8485   32.8003    9.2844 LP  0  0  0  0  0  0  0  0  0  0  0  0  # atno 27267 bound_to 18276
  230.7508   35.1804   11.7789 LP  0  0  0  0  0  0  0  0  0  0  0  0  # atno 27268 bound_to 10092
  230.2944   34.5233   13.2025 LP  0  0  0  0  0  0  0  0  0  0  0  0  # atno 27269 bound_to 10092
  223.6879   33.3759   12.0294 LP  0  0  0  0  0  0  0  0  0  0  0  0  # atno 27270 bound_to 10132
  224.8273   33.4647   10.7279 LP  0  0  0  0  0  0  0  0  0  0  0  0  # atno 27271 bound_to 10132
  222.1024   22.2581   11.3638 LP  0  0  0  0  0  0  0  0  0  0  0  0  # atno 27272 bound_to 11410
  220.6893   23.2015   11.0274 LP  0  0  0  0  0  0  0  0  0  0  0  0  # atno 27273 bound_to 11410
  221.2321   24.4321   10.8294 LP  0  0  0  0  0  0  0  0  0  0  0  0  # atno 27274 bound_to 17279
  228.4548   21.1440    7.0407 LP  0  0  0  0  0  0  0  0  0  0  0  0  # atno 27275 bound_to 16954
  228.6380   19.7708    6.1760 LP  0  0  0  0  0  0  0  0  0  0  0  0  # atno 27276 bound_to 16954
  220.7236   21.9211    9.2725 LP  0  0  0  0  0  0  0  0  0  0  0  0  # atno 27277 bound_to 11457
  221.5270   24.1136    7.1599 LP  0  0  0  0  0  0  0  0  0  0  0  0  # atno 27278 bound_to 11523
  226.8022   22.2493    4.2720 LP  0  0  0  0  0  0  0  0  0  0  0  0  # atno 27279 bound_to 11602
  225.6302   22.0204    5.5266 LP  0  0  0  0  0  0  0  0  0  0  0  0  # atno 27280 bound_to 11602
  223.2068   25.0982    4.1198 LP  0  0  0  0  0  0  0  0  0  0  0  0  # atno 27283 bound_to 11599
  221.7133   17.7231    9.6750 LP  0  0  0  0  0  0  0  0  0  0  0  0  # atno 27286 bound_to 11412
  222.4037   19.1916    9.4917 LP  0  0  0  0  0  0  0  0  0  0  0  0  # atno 27287 bound_to 11412
  233.4928   18.3847   11.1689 LP  0  0  0  0  0  0  0  0  0  0  0  0  # atno 27288 bound_to 18684
  234.8677   17.5858   10.4824 LP  0  0  0  0  0  0  0  0  0  0  0  0  # atno 27289 bound_to 18684

> <Gold.Score>
     Fitness  S(hb_ext) S(vdw_ext)  S(hb_int)    S(int)      intcor
     40.05       7.45      24.62       0.00      -1.26      -0.77

> <Gold.Goldscore.Fitness>
40.0479

> <Gold.Goldscore.Internal.Vdw>
-1.6020

> <Gold.Goldscore.Internal.Torsion>
-0.4213

> <Gold.Goldscore.External.Vdw>
24.6207

> <Gold.Goldscore.Internal.HBond>
0.0000

> <Gold.Goldscore.External.HBond>
7.4525

> <Gold.Goldscore.Internal.Correction>
-0.7653

> <Gold.Goldscore.Hbonds>
donor molecule, donor type, donor heavy atom, donor atom, acceptor molecule, acceptor atom, score
      P1  H 19343 19392       L1    17  0.94
      L1  H    10    23       P1 18462  0.91

> <Gold.Goldscore.Internal.Vdw.Weighted>
-1.6020

> <Gold.Goldscore.Internal.Torsion.Weighted>
-0.4213

> <Gold.Goldscore.External.Vdw.Weighted>
33.8535

> <Gold.Goldscore.Internal.HBond.Weighted>
0.0000

> <Gold.Goldscore.External.HBond.Weighted>
7.4525

> <Gold.Goldscore.Internal.Correction.Weighted>
-0.7653

> <Gold.Rescore>
     Score     S(PLP)   S(hbond)     S(cho)   S(metal)  DE(clash)   DE(tors)     intcor
     28.73     -26.68       1.25       0.00       0.00       0.88       0.41       ----

> <Gold.PLP.Fitness>
28.7250

> <Gold.PLP.PLP>
-26.6827

> <Gold.PLP.part.hbond>
-3.9598

> <Gold.PLP.part.metal>
0.0000

> <Gold.PLP.part.buried>
-2.6079

> <Gold.PLP.part.nonpolar>
-21.6771

> <Gold.PLP.part.repulsive>
1.8038

> <Gold.PLP.ligand.clash>
0.8759

> <Gold.PLP.ligand.torsion>
0.4096

> <Gold.PLP.Chemscore.Hbond>
1.2458

> <Gold.PLP.Chemscore.CHOScore>
0.0000

> <Gold.PLP.Chemscore.Metal>
0.0000

> <Gold.Chemscore.Hbonds>
donor molecule, donor type, donor heavy atom, donor atom, acceptor molecule, acceptor atom, score
      L1  H    10    23       P1 18462  0.38
      P1  H 19343 19392       L1    17  0.71

> <Gold.PLP.Chemscore.Internal.Correction>
   9.000000E+99

