#       Name:                CT1002167954
#       Creating user name   hitesit
#       Creation time:       Sun Apr 16 22:59:50 2023


#       File generated by GOLD software.
#

@<TRIPOS>MOLECULE
CT1002167954|ligand_prepared|mol2|1|dock4
    29    30     1
SMALL
NO_CHARGES


@<TRIPOS>ATOM
      1 C1         229.4570  19.9881  12.2067 C.3            1 RES1               0.0000
      2 C2         228.2317  20.6291  12.8897 C.ar           1 RES1               0.0000
      3 C3         229.0651  18.5485  11.8872 C.2            1 RES1               0.0000
      4 C4         229.7540  20.8395  10.9772 C.2            1 RES1               0.0000
      5 C5         230.7255  19.9671  13.0911 C.3            1 RES1               0.0000
      6 C6         226.9544  20.1195  12.6766 C.ar           1 RES1               0.0000
      7 C7         228.3630  21.7268  13.7361 C.ar           1 RES1               0.0000
      8 N8         228.8079  18.2380  10.5844 N.am           1 RES1               0.0000
      9 O9         228.9450  17.7080  12.7700 O.2            1 RES1               0.0000
     10 N10        229.5938  20.2642   9.7439 N.am           1 RES1               0.0000
     11 O11        230.1093  22.0084  11.0651 O.2            1 RES1               0.0000
     12 C12        231.8199  19.0481  12.5717 C.3            1 RES1               0.0000
     13 C13        225.8486  20.6848  13.2898 C.ar           1 RES1               0.0000
     14 C14        227.2558  22.2908  14.3481 C.ar           1 RES1               0.0000
     15 C15        229.1046  19.0116   9.4912 C.2            1 RES1               0.0000
     16 C16        225.9985  21.7705  14.1262 C.ar           1 RES1               0.0000
     17 O17        228.9378  18.5845   8.3524 O.2            1 RES1               0.0000
     18 H18        231.1242  20.9867  13.1608 H              1 RES1               0.0000
     19 H19        230.4457  19.6466  14.1022 H              1 RES1               0.0000
     20 H20        226.8165  19.2671  12.0198 H              1 RES1               0.0000
     21 H21        229.3422  22.1536  13.9245 H              1 RES1               0.0000
     22 H22        228.3527  17.3483  10.4065 H              1 RES1               0.0000
     23 H23        229.8643  20.8214   8.9397 H              1 RES1               0.0000
     24 H24        232.6867  19.0708  13.2288 H              1 RES1               0.0000
     25 H25        231.4657  18.0210  12.5134 H              1 RES1               0.0000
     26 H26        232.1401  19.3531  11.5775 H              1 RES1               0.0000
     27 H27        224.8611  20.2724  13.1108 H              1 RES1               0.0000
     28 H28        227.3784  23.1456  15.0051 H              1 RES1               0.0000
     29 H29        225.1322  22.2129  14.6067 H              1 RES1               0.0000
@<TRIPOS>BOND
    1    1    2 1     
    2    1    3 1     
    3    1    4 1     
    4    1    5 1     
    5    2    6 ar    
    6    2    7 ar    
    7    3    8 1     
    8    3    9 2     
    9    4   10 1     
   10    4   11 2     
   11    5   12 1     
   12    5   18 1     
   13    5   19 1     
   14    6   13 ar    
   15    6   20 1     
   16    7   14 ar    
   17    7   21 1     
   18    8   15 1     
   19    8   22 1     
   20   10   15 1     
   21   10   23 1     
   22   12   24 1     
   23   12   25 1     
   24   12   26 1     
   25   13   16 ar    
   26   13   27 1     
   27   14   16 ar    
   28   14   28 1     
   29   15   17 2     
   30   16   29 1     
@<TRIPOS>SUBSTRUCTURE
      1 RES1           1
@<TRIPOS>SET
DONOR_HYDROGENS      STATIC     ATOMS    <user>   **** ""
2 22 23
ATOM$RED        STATIC     ATOMS    COLORGROUP SYSTEM
2 22 23
@<TRIPOS>COMMENT
> <Gold.Version>
2022.3.0

> <Gold.Id.Protein>
unknown|4v3u_clean|pdb

> <Gold.Protein.RotatedTorsions>
[  594  544  543  542 ] final    2.93 input   59.98 | X-H torsion
[  739  695  696  697 ] final  -42.38 input   98.51 | X-H torsion
[ 2556 2523 2524 2525 ] final  -29.84 input  111.11 | X-H torsion
[ 2627 2595 2596 2597 ] final  -90.70 input   53.40 | X-H torsion
[ 26082 26043 26042 26040 ] final  132.72 input   60.02 | X-H torsion
[ 27179 27119 27118 27114 ] final   18.65 input   60.01 | X-H torsion
[ 7426 7411 7412 7413 ] final    0.43 input   83.97 | X-H torsion
[ 7476 7453 7454 7455 ] final -115.60 input   94.79 | X-H torsion
[ 7522 7511 7512 7513 ] final  -10.73 input   85.82 | X-H torsion
[ 17193 17173 17174 17175 ] final  -70.84 input   42.33 | X-H torsion
[ 17249 17217 17218 17219 ] final -163.69 input  107.71 | X-H torsion
[ 18293 18271 18272 18273 ] final   36.54 input   26.15 | X-H torsion
[ 18325 18311 18312 18313 ] final   43.96 input   53.27 | X-H torsion
[ 18407 18359 18360 18361 ] final   83.50 input   33.85 | X-H torsion
[ 18493 18451 18452 18453 ] final  150.29 input  113.35 | X-H torsion
[ 18561 18527 18528 18529 ] final  -45.14 input   85.91 | X-H torsion
[ 18501 18462 18461 18459 ] final -161.98 input   59.98 | X-H torsion
[ 18241 18201 18202 18203 ] final  128.93 input   44.19 | X-H torsion
[ 18297 18276 18275 18272 ] final  -16.99 input   59.98 | X-H torsion
[ 10099 10092 10091 10088 ] final  -77.57 input   59.98 | X-H torsion
[ 17301 17279 17280 17281 ] final  -63.48 input   44.55 | X-H torsion
[ 16993 16954 16953 16951 ] final   50.40 input   59.99 | X-H torsion
[ 11475 11457 11458 11459 ] final -169.55 input   48.15 | X-H torsion
[ 11539 11523 11524 11525 ] final  104.07 input  117.79 | X-H torsion
[ 11615 11599 11600 11601 ] final   50.88 input   58.98 | X-H torsion
[ 11423 11412 11411 11408 ] final -127.05 input   60.01 | X-H torsion
[ 27181 27121 27120 27118 ] final  108.11 input   60.02 | X-H torsion
[ 10139 10129 10130 10131 ] final   57.84 input   28.23 | X-H torsion
[ 17356 17327 17328 17329 ] final  -49.86 input   73.50 | X-H torsion
[ 27201  698  697  696 ] final  125.15 input    0.00 | X-H torsion
[ 27204 2526 2525 2524 ] final -125.55 input    0.00 | X-H torsion
[ 27228 7328 7327 7326 ] final    6.38 input    0.00 | X-H torsion
[ 27233 7514 7513 7512 ] final    8.56 input    0.00 | X-H torsion
[ 27236 17124 17123 17122 ] final   50.92 input    0.00 | X-H torsion
[ 27240 18204 18203 18202 ] final   -7.47 input    0.00 | X-H torsion
[ 27243 18274 18273 18272 ] final  112.18 input    0.00 | X-H torsion
[ 27246 18314 18313 18312 ] final -160.27 input   -0.00 | X-H torsion
[ 27249 18362 18361 18360 ] final   25.71 input    0.00 | X-H torsion
[ 27257 17176 17175 17174 ] final -123.43 input   -0.00 | X-H torsion
[ 27259 17220 17219 17218 ] final -116.35 input   -0.00 | X-H torsion
[ 27261 17050 17049 17048 ] final -120.41 input    0.00 | X-H torsion
[ 27270 10132 10131 10130 ] final  -83.66 input    0.00 | X-H torsion
[ 27272 11410 11409 11408 ] final -129.72 input   -0.00 | X-H torsion
[ 27279 11602 11601 11600 ] final   41.89 input    0.00 | X-H torsion
[ 27288 18684 18683 18682 ] final  112.27 input   -0.00 | X-H torsion

> <Gold.Protein.ActiveResidues>
 LYS309  TRP311  GLU314  MET341  HIS342  TRP414  ALA417  ARG419  CYS420  VAL421 
 GLY422  ARG423  LEU460  SER462  ALA463  SER482  GLN483  LEU484  ILE485  ARG486 
 ALA502  TRP566  TYR567  LEU569  PRO570  ALA571  VAL572  SER573  ASN574  MET575 
 PHE589  SER590  GLY591  TRP592  TYR593  MET594  GLU597  ILE598  ARG601  ASP602 
 ASP605  ARG608  TRP683  PHE696  HIS697  GLU699  TYR711  ASP714  HEM750  H4B760 

> <Gold.Protein.RotatedAtoms>
  220.6608    8.8850   19.3243 H   0  0  0  0  0  0  0  0  0  0  0  0  # atno 594  bound_to 544 
  221.0741    8.2086   17.8689 H   0  0  0  0  0  0  0  0  0  0  0  0  # atno 595  bound_to 544 
  219.8695    7.5322   18.7854 H   0  0  0  0  0  0  0  0  0  0  0  0  # atno 596  bound_to 544 
  227.3713    6.2614   19.9929 H   0  0  0  0  0  0  0  0  0  0  0  0  # atno 739  bound_to 695 
  224.6190   14.0773   26.4115 H   0  0  0  0  0  0  0  0  0  0  0  0  # atno 2556 bound_to 2523
  223.1857   15.5536   25.2977 H   0  0  0  0  0  0  0  0  0  0  0  0  # atno 2627 bound_to 2595
  230.5093   26.5976   22.9210 H   0  0  0  0  0  0  0  0  0  0  0  0  # atno 7426 bound_to 7411
  232.3854   27.3456   21.2873 H   0  0  0  0  0  0  0  0  0  0  0  0  # atno 7476 bound_to 7453
  233.4215   29.7459   20.2269 H   0  0  0  0  0  0  0  0  0  0  0  0  # atno 7522 bound_to 7511
  230.2979   34.3808   12.6743 H   0  0  0  0  0  0  0  0  0  0  0  0  # atno 10099 bound_to 10092
  226.5196   34.6727   10.4576 H   0  0  0  0  0  0  0  0  0  0  0  0  # atno 10139 bound_to 10129
  221.3013   17.7414    9.3252 H   0  0  0  0  0  0  0  0  0  0  0  0  # atno 11423 bound_to 11412
  221.6109   21.4099    9.6153 H   0  0  0  0  0  0  0  0  0  0  0  0  # atno 11475 bound_to 11457
  222.8588   25.1499    7.1950 H   0  0  0  0  0  0  0  0  0  0  0  0  # atno 11539 bound_to 11523
  224.1280   24.3974    5.1951 H   0  0  0  0  0  0  0  0  0  0  0  0  # atno 11615 bound_to 11599
  227.4122   21.1032    6.6284 H   0  0  0  0  0  0  0  0  0  0  0  0  # atno 16993 bound_to 16954
  227.1059   26.2376    9.2680 H   0  0  0  0  0  0  0  0  0  0  0  0  # atno 17193 bound_to 17173
  225.0484   25.9304   10.8442 H   0  0  0  0  0  0  0  0  0  0  0  0  # atno 17249 bound_to 17217
  221.1428   25.2318   12.3340 H   0  0  0  0  0  0  0  0  0  0  0  0  # atno 17301 bound_to 17279
  218.6931   24.8865   12.7419 H   0  0  0  0  0  0  0  0  0  0  0  0  # atno 17356 bound_to 17327
  221.1855   29.9594   12.4717 H   0  0  0  0  0  0  0  0  0  0  0  0  # atno 18241 bound_to 18201
  225.0427   32.3715   11.3107 H   0  0  0  0  0  0  0  0  0  0  0  0  # atno 18293 bound_to 18271
  225.8091   32.7873    9.2727 H   0  0  0  0  0  0  0  0  0  0  0  0  # atno 18297 bound_to 18276
  228.7667   30.0806   10.8055 H   0  0  0  0  0  0  0  0  0  0  0  0  # atno 18325 bound_to 18311
  232.4502   31.3903   11.3573 H   0  0  0  0  0  0  0  0  0  0  0  0  # atno 18407 bound_to 18359
  233.7411   28.0027    8.6746 H   0  0  0  0  0  0  0  0  0  0  0  0  # atno 18493 bound_to 18451
  230.5089   22.3643    6.7428 H   0  0  0  0  0  0  0  0  0  0  0  0  # atno 18501 bound_to 18462
  235.9524   25.9852   10.9721 H   0  0  0  0  0  0  0  0  0  0  0  0  # atno 18561 bound_to 18527
  224.3890   20.7438   21.9409 H   0  0  0  0  0  0  0  0  0  0  0  0  # atno 26082 bound_to 26043
  231.5158   12.7497   20.9165 H   0  0  0  0  0  0  0  0  0  0  0  0  # atno 27179 bound_to 27119
  228.7591   13.3791   24.8284 H   0  0  0  0  0  0  0  0  0  0  0  0  # atno 27181 bound_to 27121
  227.4276    7.8374   20.7402 LP  0  0  0  0  0  0  0  0  0  0  0  0  # atno 27200 bound_to 695 
  227.5818    8.0793   15.6444 LP  0  0  0  0  0  0  0  0  0  0  0  0  # atno 27201 bound_to 698 
  225.9962    7.5602   16.1098 LP  0  0  0  0  0  0  0  0  0  0  0  0  # atno 27202 bound_to 698 
  225.4480   13.1119   25.2171 LP  0  0  0  0  0  0  0  0  0  0  0  0  # atno 27203 bound_to 2523
  223.1050   17.5673   25.3710 LP  0  0  0  0  0  0  0  0  0  0  0  0  # atno 27204 bound_to 2526
  223.7649   17.4583   23.7733 LP  0  0  0  0  0  0  0  0  0  0  0  0  # atno 27205 bound_to 2526
  222.4378   14.1785   24.5152 LP  0  0  0  0  0  0  0  0  0  0  0  0  # atno 27206 bound_to 2595
  224.4709   20.5037   20.3333 LP  0  0  0  0  0  0  0  0  0  0  0  0  # atno 27210 bound_to 26043
  224.3729   19.2282   21.3482 LP  0  0  0  0  0  0  0  0  0  0  0  0  # atno 27211 bound_to 26043
  230.0773   12.1336   20.4688 LP  0  0  0  0  0  0  0  0  0  0  0  0  # atno 27214 bound_to 27119
  230.8999   11.4717   21.7146 LP  0  0  0  0  0  0  0  0  0  0  0  0  # atno 27215 bound_to 27119
  230.7643   23.6100   21.4926 LP  0  0  0  0  0  0  0  0  0  0  0  0  # atno 27228 bound_to 7328
  231.3487   25.0324   20.6956 LP  0  0  0  0  0  0  0  0  0  0  0  0  # atno 27229 bound_to 7328
  229.1298   26.2084   21.9259 LP  0  0  0  0  0  0  0  0  0  0  0  0  # atno 27230 bound_to 7411
  232.7695   27.1941   19.5886 LP  0  0  0  0  0  0  0  0  0  0  0  0  # atno 27231 bound_to 7453
  233.9258   28.7639   18.8738 LP  0  0  0  0  0  0  0  0  0  0  0  0  # atno 27232 bound_to 7511
  233.3772   33.1254   17.4294 LP  0  0  0  0  0  0  0  0  0  0  0  0  # atno 27233 bound_to 7514
  233.0415   34.0347   18.8648 LP  0  0  0  0  0  0  0  0  0  0  0  0  # atno 27234 bound_to 7514
  228.2921   28.9456    9.1161 LP  0  0  0  0  0  0  0  0  0  0  0  0  # atno 27236 bound_to 17124
  227.4053   28.2089   10.4087 LP  0  0  0  0  0  0  0  0  0  0  0  0  # atno 27237 bound_to 17124
  226.6156   26.4938    7.6117 LP  0  0  0  0  0  0  0  0  0  0  0  0  # atno 27238 bound_to 17173
  223.8814   27.2267   10.6732 LP  0  0  0  0  0  0  0  0  0  0  0  0  # atno 27239 bound_to 17217
  223.5498   28.7069   11.4572 LP  0  0  0  0  0  0  0  0  0  0  0  0  # atno 27240 bound_to 18204
  225.0860   28.9688   10.7013 LP  0  0  0  0  0  0  0  0  0  0  0  0  # atno 27241 bound_to 18204
  224.4874   30.7283   11.4878 LP  0  0  0  0  0  0  0  0  0  0  0  0  # atno 27242 bound_to 18271
  227.5872   33.2774   12.1259 LP  0  0  0  0  0  0  0  0  0  0  0  0  # atno 27243 bound_to 18274
  227.2399   33.5595   10.4526 LP  0  0  0  0  0  0  0  0  0  0  0  0  # atno 27244 bound_to 18274
  227.8861   31.5583   11.1278 LP  0  0  0  0  0  0  0  0  0  0  0  0  # atno 27245 bound_to 18311
  231.2819   31.0778    8.3093 LP  0  0  0  0  0  0  0  0  0  0  0  0  # atno 27246 bound_to 18314
  230.1199   32.2810    8.7590 LP  0  0  0  0  0  0  0  0  0  0  0  0  # atno 27247 bound_to 18314
  231.1376   30.5465   10.5673 LP  0  0  0  0  0  0  0  0  0  0  0  0  # atno 27248 bound_to 18359
  232.9972   29.2344   12.1551 LP  0  0  0  0  0  0  0  0  0  0  0  0  # atno 27249 bound_to 18362
  234.3976   28.2210   12.0474 LP  0  0  0  0  0  0  0  0  0  0  0  0  # atno 27250 bound_to 18362
  234.3372   28.8594   10.0752 LP  0  0  0  0  0  0  0  0  0  0  0  0  # atno 27251 bound_to 18451
  235.3413   26.3149   12.5758 LP  0  0  0  0  0  0  0  0  0  0  0  0  # atno 27252 bound_to 18527
  222.5341   25.5808    9.0545 LP  0  0  0  0  0  0  0  0  0  0  0  0  # atno 27257 bound_to 17176
  223.9667   24.9278    8.3325 LP  0  0  0  0  0  0  0  0  0  0  0  0  # atno 27258 bound_to 17176
  220.8801   27.5882   12.4340 LP  0  0  0  0  0  0  0  0  0  0  0  0  # atno 27259 bound_to 17220
  221.8424   27.8856   11.0249 LP  0  0  0  0  0  0  0  0  0  0  0  0  # atno 27260 bound_to 17220
  227.2096   26.3214    5.9230 LP  0  0  0  0  0  0  0  0  0  0  0  0  # atno 27261 bound_to 17050
  228.3576   25.6734    4.7995 LP  0  0  0  0  0  0  0  0  0  0  0  0  # atno 27262 bound_to 17050
  229.8046   22.7879    8.1472 LP  0  0  0  0  0  0  0  0  0  0  0  0  # atno 27263 bound_to 18462
  230.8015   21.4959    8.0874 LP  0  0  0  0  0  0  0  0  0  0  0  0  # atno 27264 bound_to 18462
  221.6318   29.8621   10.7836 LP  0  0  0  0  0  0  0  0  0  0  0  0  # atno 27265 bound_to 18201
  225.3712   32.1772    7.8287 LP  0  0  0  0  0  0  0  0  0  0  0  0  # atno 27266 bound_to 18276
  226.9393   32.5156    8.1335 LP  0  0  0  0  0  0  0  0  0  0  0  0  # atno 27267 bound_to 18276
  230.7412   35.6812   13.5460 LP  0  0  0  0  0  0  0  0  0  0  0  0  # atno 27268 bound_to 10092
  230.9413   35.6742   11.9254 LP  0  0  0  0  0  0  0  0  0  0  0  0  # atno 27269 bound_to 10092
  224.0523   33.2602   10.5526 LP  0  0  0  0  0  0  0  0  0  0  0  0  # atno 27270 bound_to 10132
  224.4628   33.5804   12.2046 LP  0  0  0  0  0  0  0  0  0  0  0  0  # atno 27271 bound_to 10132
  221.2418   23.4123   10.6853 LP  0  0  0  0  0  0  0  0  0  0  0  0  # atno 27272 bound_to 11410
  221.5499   22.0473   11.7060 LP  0  0  0  0  0  0  0  0  0  0  0  0  # atno 27273 bound_to 11410
  221.3611   24.7327   10.6767 LP  0  0  0  0  0  0  0  0  0  0  0  0  # atno 27274 bound_to 17279
  228.9459   20.6112    6.8591 LP  0  0  0  0  0  0  0  0  0  0  0  0  # atno 27275 bound_to 16954
  227.9426   19.7460    5.9044 LP  0  0  0  0  0  0  0  0  0  0  0  0  # atno 27276 bound_to 16954
  220.8431   21.3736    8.0407 LP  0  0  0  0  0  0  0  0  0  0  0  0  # atno 27277 bound_to 11457
  221.7658   23.8125    6.9390 LP  0  0  0  0  0  0  0  0  0  0  0  0  # atno 27278 bound_to 11523
  225.8066   22.7444    5.3583 LP  0  0  0  0  0  0  0  0  0  0  0  0  # atno 27279 bound_to 11602
  226.6259   21.5254    4.4402 LP  0  0  0  0  0  0  0  0  0  0  0  0  # atno 27280 bound_to 11602
  222.7162   24.5522    4.1799 LP  0  0  0  0  0  0  0  0  0  0  0  0  # atno 27283 bound_to 11599
  222.4907   18.7490    9.7935 LP  0  0  0  0  0  0  0  0  0  0  0  0  # atno 27286 bound_to 11412
  221.4193   19.2196    8.6545 LP  0  0  0  0  0  0  0  0  0  0  0  0  # atno 27287 bound_to 11412
  233.6053   18.3488   10.2897 LP  0  0  0  0  0  0  0  0  0  0  0  0  # atno 27288 bound_to 18684
  234.7552   17.6217   11.3616 LP  0  0  0  0  0  0  0  0  0  0  0  0  # atno 27289 bound_to 18684

> <Gold.Score>
     Fitness  S(hb_ext) S(vdw_ext)  S(hb_int)    S(int)      intcor
     40.19       5.76      25.84       0.00      -1.09      -0.77

> <Gold.Goldscore.Fitness>
40.1914

> <Gold.Goldscore.Internal.Vdw>
-1.1725

> <Gold.Goldscore.Internal.Torsion>
-0.6847

> <Gold.Goldscore.External.Vdw>
25.8376

> <Gold.Goldscore.Internal.HBond>
0.0000

> <Gold.Goldscore.External.HBond>
5.7568

> <Gold.Goldscore.Internal.Correction>
-0.7653

> <Gold.Goldscore.Hbonds>
donor molecule, donor type, donor heavy atom, donor atom, acceptor molecule, acceptor atom, score
      P1  H 19343 19392       L1    17  0.71
      L1  H    10    23       P1 18462  0.74

> <Gold.Goldscore.Internal.Vdw.Weighted>
-1.1725

> <Gold.Goldscore.Internal.Torsion.Weighted>
-0.6847

> <Gold.Goldscore.External.Vdw.Weighted>
35.5266

> <Gold.Goldscore.Internal.HBond.Weighted>
0.0000

> <Gold.Goldscore.External.HBond.Weighted>
5.7568

> <Gold.Goldscore.Internal.Correction.Weighted>
-0.7653

> <Gold.Rescore>
     Score     S(PLP)   S(hbond)     S(cho)   S(metal)  DE(clash)   DE(tors)     intcor
     29.45     -28.15       1.34       0.00       0.00       1.76       0.48       ----

> <Gold.PLP.Fitness>
29.4466

> <Gold.PLP.PLP>
-28.1497

> <Gold.PLP.part.hbond>
-4.6710

> <Gold.PLP.part.metal>
0.0000

> <Gold.PLP.part.buried>
-3.0039

> <Gold.PLP.part.nonpolar>
-21.9971

> <Gold.PLP.part.repulsive>
0.9629

> <Gold.PLP.ligand.clash>
1.7621

> <Gold.PLP.ligand.torsion>
0.4796

> <Gold.PLP.Chemscore.Hbond>
1.3394

> <Gold.PLP.Chemscore.CHOScore>
0.0000

> <Gold.PLP.Chemscore.Metal>
0.0000

> <Gold.Chemscore.Hbonds>
donor molecule, donor type, donor heavy atom, donor atom, acceptor molecule, acceptor atom, score
      L1  H    10    23       P1 18462  0.89
      P1  H 19343 19392       L1    17  0.70

> <Gold.PLP.Chemscore.Internal.Correction>
   9.000000E+99

