#       Name:                CT1002167954
#       Creating user name   hitesit
#       Creation time:       Sun Apr 16 22:59:51 2023


#       File generated by GOLD software.
#

@<TRIPOS>MOLECULE
CT1002167954|ligand_prepared|mol2|1|dock5
    29    30     1
SMALL
NO_CHARGES


@<TRIPOS>ATOM
      1 C1         228.2630  22.8135  12.4645 C.3            1 RES1               0.0000
      2 C2         228.4022  24.1048  13.2962 C.ar           1 RES1               0.0000
      3 C3         228.5621  21.6576  13.4146 C.2            1 RES1               0.0000
      4 C4         226.8419  22.8129  11.9121 C.2            1 RES1               0.0000
      5 C5         229.2404  22.7320  11.2688 C.3            1 RES1               0.0000
      6 C6         227.6474  24.2888  14.4509 C.ar           1 RES1               0.0000
      7 C7         229.2814  25.1181  12.9236 C.ar           1 RES1               0.0000
      8 N8         227.5106  20.8992  13.8377 N.am           1 RES1               0.0000
      9 O9         229.6980  21.4393  13.8176 O.2            1 RES1               0.0000
     10 N10        225.9836  21.8381  12.3490 N.am           1 RES1               0.0000
     11 O11        226.4528  23.6577  11.1151 O.2            1 RES1               0.0000
     12 C12        229.1582  21.4240  10.4977 C.3            1 RES1               0.0000
     13 C13        227.7694  25.4425  15.2074 C.ar           1 RES1               0.0000
     14 C14        229.4017  26.2712  13.6815 C.ar           1 RES1               0.0000
     15 C15        226.2444  20.8997  13.3100 C.2            1 RES1               0.0000
     16 C16        228.6468  26.4342  14.8235 C.ar           1 RES1               0.0000
     17 O17        225.4029  20.0902  13.6891 O.2            1 RES1               0.0000
     18 H18        229.0280  23.5607  10.5821 H              1 RES1               0.0000
     19 H19        230.2646  22.8588  11.6407 H              1 RES1               0.0000
     20 H20        226.9500  23.5204  14.7673 H              1 RES1               0.0000
     21 H21        229.8846  25.0120  12.0284 H              1 RES1               0.0000
     22 H22        227.6815  20.2739  14.6188 H              1 RES1               0.0000
     23 H23        225.0651  21.8093  11.9178 H              1 RES1               0.0000
     24 H24        229.8642  21.4193   9.6699 H              1 RES1               0.0000
     25 H25        229.3885  20.5799  11.1444 H              1 RES1               0.0000
     26 H26        228.1593  21.2776  10.0921 H              1 RES1               0.0000
     27 H27        227.1720  25.5666  16.1046 H              1 RES1               0.0000
     28 H28        230.0930  27.0494  13.3753 H              1 RES1               0.0000
     29 H29        228.7424  27.3378  15.4165 H              1 RES1               0.0000
@<TRIPOS>BOND
    1    1    2 1     
    2    1    3 1     
    3    1    4 1     
    4    1    5 1     
    5    2    6 ar    
    6    2    7 ar    
    7    3    8 1     
    8    3    9 2     
    9    4   10 1     
   10    4   11 2     
   11    5   12 1     
   12    5   18 1     
   13    5   19 1     
   14    6   13 ar    
   15    6   20 1     
   16    7   14 ar    
   17    7   21 1     
   18    8   15 1     
   19    8   22 1     
   20   10   15 1     
   21   10   23 1     
   22   12   24 1     
   23   12   25 1     
   24   12   26 1     
   25   13   16 ar    
   26   13   27 1     
   27   14   16 ar    
   28   14   28 1     
   29   15   17 2     
   30   16   29 1     
@<TRIPOS>SUBSTRUCTURE
      1 RES1           1
@<TRIPOS>SET
DONOR_HYDROGENS      STATIC     ATOMS    <user>   **** ""
2 22 23
ATOM$RED        STATIC     ATOMS    COLORGROUP SYSTEM
2 22 23
@<TRIPOS>COMMENT
> <Gold.Version>
2022.3.0

> <Gold.Id.Protein>
unknown|4v3u_clean|pdb

> <Gold.Protein.RotatedTorsions>
[  594  544  543  542 ] final  -38.94 input   59.98 | X-H torsion
[  739  695  696  697 ] final -120.13 input   98.51 | X-H torsion
[ 2556 2523 2524 2525 ] final  175.81 input  111.11 | X-H torsion
[ 2627 2595 2596 2597 ] final  138.38 input   53.40 | X-H torsion
[ 26082 26043 26042 26040 ] final   77.83 input   60.02 | X-H torsion
[ 27179 27119 27118 27114 ] final -167.97 input   60.01 | X-H torsion
[ 7426 7411 7412 7413 ] final -129.95 input   83.97 | X-H torsion
[ 7476 7453 7454 7455 ] final  136.04 input   94.79 | X-H torsion
[ 7522 7511 7512 7513 ] final  170.49 input   85.82 | X-H torsion
[ 17193 17173 17174 17175 ] final  -54.57 input   42.33 | X-H torsion
[ 17249 17217 17218 17219 ] final  158.89 input  107.71 | X-H torsion
[ 18293 18271 18272 18273 ] final   70.14 input   26.15 | X-H torsion
[ 18325 18311 18312 18313 ] final  -91.62 input   53.27 | X-H torsion
[ 18407 18359 18360 18361 ] final  -34.78 input   33.85 | X-H torsion
[ 18493 18451 18452 18453 ] final   28.94 input  113.35 | X-H torsion
[ 18561 18527 18528 18529 ] final  143.27 input   85.91 | X-H torsion
[ 18501 18462 18461 18459 ] final -109.64 input   59.98 | X-H torsion
[ 18241 18201 18202 18203 ] final  166.02 input   44.19 | X-H torsion
[ 18297 18276 18275 18272 ] final   63.43 input   59.98 | X-H torsion
[ 10099 10092 10091 10088 ] final  -43.05 input   59.98 | X-H torsion
[ 17301 17279 17280 17281 ] final  -82.51 input   44.55 | X-H torsion
[ 16993 16954 16953 16951 ] final   11.20 input   59.99 | X-H torsion
[ 11475 11457 11458 11459 ] final  143.89 input   48.15 | X-H torsion
[ 11539 11523 11524 11525 ] final -131.69 input  117.79 | X-H torsion
[ 11615 11599 11600 11601 ] final  101.65 input   58.98 | X-H torsion
[ 11423 11412 11411 11408 ] final   31.06 input   60.01 | X-H torsion
[ 27181 27121 27120 27118 ] final  -23.74 input   60.02 | X-H torsion
[ 10139 10129 10130 10131 ] final  118.59 input   28.23 | X-H torsion
[ 17356 17327 17328 17329 ] final  -90.35 input   73.50 | X-H torsion
[ 27201  698  697  696 ] final -161.29 input    0.00 | X-H torsion
[ 27204 2526 2525 2524 ] final   93.39 input    0.00 | X-H torsion
[ 27228 7328 7327 7326 ] final -119.08 input    0.00 | X-H torsion
[ 27233 7514 7513 7512 ] final  -52.21 input    0.00 | X-H torsion
[ 27236 17124 17123 17122 ] final   67.68 input    0.00 | X-H torsion
[ 27240 18204 18203 18202 ] final   42.61 input    0.00 | X-H torsion
[ 27243 18274 18273 18272 ] final   40.89 input    0.00 | X-H torsion
[ 27246 18314 18313 18312 ] final -132.16 input   -0.00 | X-H torsion
[ 27249 18362 18361 18360 ] final -104.20 input    0.00 | X-H torsion
[ 27257 17176 17175 17174 ] final -133.50 input   -0.00 | X-H torsion
[ 27259 17220 17219 17218 ] final  118.00 input   -0.00 | X-H torsion
[ 27261 17050 17049 17048 ] final   52.14 input    0.00 | X-H torsion
[ 27270 10132 10131 10130 ] final  155.92 input    0.00 | X-H torsion
[ 27272 11410 11409 11408 ] final  112.92 input   -0.00 | X-H torsion
[ 27279 11602 11601 11600 ] final   43.29 input    0.00 | X-H torsion
[ 27288 18684 18683 18682 ] final -126.93 input   -0.00 | X-H torsion

> <Gold.Protein.ActiveResidues>
 LYS309  TRP311  GLU314  MET341  HIS342  TRP414  ALA417  ARG419  CYS420  VAL421 
 GLY422  ARG423  LEU460  SER462  ALA463  SER482  GLN483  LEU484  ILE485  ARG486 
 ALA502  TRP566  TYR567  LEU569  PRO570  ALA571  VAL572  SER573  ASN574  MET575 
 PHE589  SER590  GLY591  TRP592  TYR593  MET594  GLU597  ILE598  ARG601  ASP602 
 ASP605  ARG608  TRP683  PHE696  HIS697  GLU699  TYR711  ASP714  HEM750  H4B760 

> <Gold.Protein.RotatedAtoms>
  220.1646    8.4517   19.5076 H   0  0  0  0  0  0  0  0  0  0  0  0  # atno 594  bound_to 544 
  221.2410    8.7299   18.2786 H   0  0  0  0  0  0  0  0  0  0  0  0  # atno 595  bound_to 544 
  220.1984    7.4438   18.1925 H   0  0  0  0  0  0  0  0  0  0  0  0  # atno 596  bound_to 544 
  226.5817    6.7907   20.5539 H   0  0  0  0  0  0  0  0  0  0  0  0  # atno 739  bound_to 695 
  225.7436   13.3143   25.3654 H   0  0  0  0  0  0  0  0  0  0  0  0  # atno 2556 bound_to 2523
  222.5916   14.7153   24.0488 H   0  0  0  0  0  0  0  0  0  0  0  0  # atno 2627 bound_to 2595
  229.6502   25.6931   21.9264 H   0  0  0  0  0  0  0  0  0  0  0  0  # atno 7426 bound_to 7411
  232.8902   26.4526   20.2834 H   0  0  0  0  0  0  0  0  0  0  0  0  # atno 7476 bound_to 7453
  233.9486   28.7556   18.8661 H   0  0  0  0  0  0  0  0  0  0  0  0  # atno 7522 bound_to 7511
  230.4263   34.5304   12.1550 H   0  0  0  0  0  0  0  0  0  0  0  0  # atno 10099 bound_to 10092
  226.8397   35.3734   10.0078 H   0  0  0  0  0  0  0  0  0  0  0  0  # atno 10139 bound_to 10129
  221.9084   19.4375    8.9545 H   0  0  0  0  0  0  0  0  0  0  0  0  # atno 11423 bound_to 11412
  221.9397   20.9883    9.1543 H   0  0  0  0  0  0  0  0  0  0  0  0  # atno 11475 bound_to 11457
  221.4707   24.4586    7.3420 H   0  0  0  0  0  0  0  0  0  0  0  0  # atno 11539 bound_to 11523
  224.1083   25.0140    4.7601 H   0  0  0  0  0  0  0  0  0  0  0  0  # atno 11615 bound_to 11599
  227.9302   21.2784    6.9371 H   0  0  0  0  0  0  0  0  0  0  0  0  # atno 16993 bound_to 16954
  226.9791   26.0252    9.2354 H   0  0  0  0  0  0  0  0  0  0  0  0  # atno 17193 bound_to 17173
  225.1041   26.2878   11.2891 H   0  0  0  0  0  0  0  0  0  0  0  0  # atno 17249 bound_to 17217
  221.2458   25.4793   12.2224 H   0  0  0  0  0  0  0  0  0  0  0  0  # atno 17301 bound_to 17279
  218.4395   24.7211   12.2147 H   0  0  0  0  0  0  0  0  0  0  0  0  # atno 17356 bound_to 17327
  220.9136   30.3656   12.1906 H   0  0  0  0  0  0  0  0  0  0  0  0  # atno 18241 bound_to 18201
  224.7831   32.2586   10.8906 H   0  0  0  0  0  0  0  0  0  0  0  0  # atno 18293 bound_to 18271
  226.8882   32.7329    8.7294 H   0  0  0  0  0  0  0  0  0  0  0  0  # atno 18297 bound_to 18276
  228.0437   31.5241   10.4855 H   0  0  0  0  0  0  0  0  0  0  0  0  # atno 18325 bound_to 18311
  231.5657   30.1553   11.2523 H   0  0  0  0  0  0  0  0  0  0  0  0  # atno 18407 bound_to 18359
  234.8477   28.7956    9.3917 H   0  0  0  0  0  0  0  0  0  0  0  0  # atno 18493 bound_to 18451
  230.9084   21.7208    7.0714 H   0  0  0  0  0  0  0  0  0  0  0  0  # atno 18501 bound_to 18462
  235.3858   26.4368   12.5791 H   0  0  0  0  0  0  0  0  0  0  0  0  # atno 18561 bound_to 18527
  224.4436   21.0942   21.1539 H   0  0  0  0  0  0  0  0  0  0  0  0  # atno 26082 bound_to 26043
  230.2066   11.4521   21.2333 H   0  0  0  0  0  0  0  0  0  0  0  0  # atno 27179 bound_to 27119
  229.5730   14.6102   23.9644 H   0  0  0  0  0  0  0  0  0  0  0  0  # atno 27181 bound_to 27121
  228.2050    7.3163   20.1878 LP  0  0  0  0  0  0  0  0  0  0  0  0  # atno 27200 bound_to 695 
  227.1726    7.1361   15.5090 LP  0  0  0  0  0  0  0  0  0  0  0  0  # atno 27201 bound_to 698 
  226.4055    8.5035   16.2451 LP  0  0  0  0  0  0  0  0  0  0  0  0  # atno 27202 bound_to 698 
  224.3409   13.8630   26.2469 LP  0  0  0  0  0  0  0  0  0  0  0  0  # atno 27203 bound_to 2523
  223.1883   17.4539   23.7441 LP  0  0  0  0  0  0  0  0  0  0  0  0  # atno 27204 bound_to 2526
  223.6816   17.5717   25.4002 LP  0  0  0  0  0  0  0  0  0  0  0  0  # atno 27205 bound_to 2526
  223.0132   14.9907   25.7249 LP  0  0  0  0  0  0  0  0  0  0  0  0  # atno 27206 bound_to 2595
  224.4372   19.6400   20.4230 LP  0  0  0  0  0  0  0  0  0  0  0  0  # atno 27210 bound_to 26043
  224.3517   19.7392   22.0507 LP  0  0  0  0  0  0  0  0  0  0  0  0  # atno 27211 bound_to 26043
  231.6247   12.1902   21.5392 LP  0  0  0  0  0  0  0  0  0  0  0  0  # atno 27214 bound_to 27119
  230.6700   12.7211   20.3254 LP  0  0  0  0  0  0  0  0  0  0  0  0  # atno 27215 bound_to 27119
  231.7734   24.7579   21.3073 LP  0  0  0  0  0  0  0  0  0  0  0  0  # atno 27228 bound_to 7328
  230.3396   23.8845   20.8810 LP  0  0  0  0  0  0  0  0  0  0  0  0  # atno 27229 bound_to 7328
  229.9763   27.0997   22.9060 LP  0  0  0  0  0  0  0  0  0  0  0  0  # atno 27230 bound_to 7411
  232.2772   28.0648   20.5675 LP  0  0  0  0  0  0  0  0  0  0  0  0  # atno 27231 bound_to 7453
  233.4090   29.7347   20.2078 LP  0  0  0  0  0  0  0  0  0  0  0  0  # atno 27232 bound_to 7511
  234.0265   33.5186   17.8668 LP  0  0  0  0  0  0  0  0  0  0  0  0  # atno 27233 bound_to 7514
  232.3922   33.6415   18.4273 LP  0  0  0  0  0  0  0  0  0  0  0  0  # atno 27234 bound_to 7514
  228.0610   29.0243    9.0517 LP  0  0  0  0  0  0  0  0  0  0  0  0  # atno 27236 bound_to 17124
  227.6364   28.1302   10.4731 LP  0  0  0  0  0  0  0  0  0  0  0  0  # atno 27237 bound_to 17124
  226.7400   26.7021    7.6436 LP  0  0  0  0  0  0  0  0  0  0  0  0  # atno 27238 bound_to 17173
  223.8280   26.8835   10.2459 LP  0  0  0  0  0  0  0  0  0  0  0  0  # atno 27239 bound_to 17217
  223.5226   28.8382   10.7365 LP  0  0  0  0  0  0  0  0  0  0  0  0  # atno 27240 bound_to 18204
  225.1132   28.8375   11.4220 LP  0  0  0  0  0  0  0  0  0  0  0  0  # atno 27241 bound_to 18204
  224.7444   30.8402   11.9037 LP  0  0  0  0  0  0  0  0  0  0  0  0  # atno 27242 bound_to 18271
  226.6703   33.2593   11.7043 LP  0  0  0  0  0  0  0  0  0  0  0  0  # atno 27243 bound_to 18274
  228.1568   33.5775   10.8742 LP  0  0  0  0  0  0  0  0  0  0  0  0  # atno 27244 bound_to 18274
  228.5865   30.1599   11.4378 LP  0  0  0  0  0  0  0  0  0  0  0  0  # atno 27245 bound_to 18311
  230.9196   30.8655    8.3347 LP  0  0  0  0  0  0  0  0  0  0  0  0  # atno 27246 bound_to 18314
  230.4821   32.4932    8.7336 LP  0  0  0  0  0  0  0  0  0  0  0  0  # atno 27247 bound_to 18314
  231.9973   31.7469   10.6694 LP  0  0  0  0  0  0  0  0  0  0  0  0  # atno 27248 bound_to 18359
  234.5375   28.9369   12.1226 LP  0  0  0  0  0  0  0  0  0  0  0  0  # atno 27249 bound_to 18362
  232.8573   28.5186   12.0800 LP  0  0  0  0  0  0  0  0  0  0  0  0  # atno 27250 bound_to 18362
  233.2532   28.0826    9.3728 LP  0  0  0  0  0  0  0  0  0  0  0  0  # atno 27251 bound_to 18451
  235.8951   25.8736   11.0051 LP  0  0  0  0  0  0  0  0  0  0  0  0  # atno 27252 bound_to 18527
  222.5499   25.4684    9.1555 LP  0  0  0  0  0  0  0  0  0  0  0  0  # atno 27257 bound_to 17176
  223.9509   25.0402    8.2315 LP  0  0  0  0  0  0  0  0  0  0  0  0  # atno 27258 bound_to 17176
  221.0755   27.7282   10.9119 LP  0  0  0  0  0  0  0  0  0  0  0  0  # atno 27259 bound_to 17220
  221.6470   27.7456   12.5469 LP  0  0  0  0  0  0  0  0  0  0  0  0  # atno 27260 bound_to 17220
  228.3128   25.7441    4.7242 LP  0  0  0  0  0  0  0  0  0  0  0  0  # atno 27261 bound_to 17050
  227.2545   26.2507    5.9983 LP  0  0  0  0  0  0  0  0  0  0  0  0  # atno 27262 bound_to 17050
  229.8911   22.9623    7.3386 LP  0  0  0  0  0  0  0  0  0  0  0  0  # atno 27263 bound_to 18462
  230.3126   21.9698    8.5650 LP  0  0  0  0  0  0  0  0  0  0  0  0  # atno 27264 bound_to 18462
  221.8963   29.4669   11.0571 LP  0  0  0  0  0  0  0  0  0  0  0  0  # atno 27265 bound_to 18201
  225.2836   32.5992    8.9671 LP  0  0  0  0  0  0  0  0  0  0  0  0  # atno 27266 bound_to 18276
  225.9409   32.1484    7.5419 LP  0  0  0  0  0  0  0  0  0  0  0  0  # atno 27267 bound_to 18276
  230.5162   35.1786   13.6448 LP  0  0  0  0  0  0  0  0  0  0  0  0  # atno 27268 bound_to 10092
  231.0370   36.0260   12.3497 LP  0  0  0  0  0  0  0  0  0  0  0  0  # atno 27269 bound_to 10092
  223.6557   33.3642   11.9988 LP  0  0  0  0  0  0  0  0  0  0  0  0  # atno 27270 bound_to 10132
  224.8594   33.4764   10.7584 LP  0  0  0  0  0  0  0  0  0  0  0  0  # atno 27271 bound_to 10132
  222.2022   22.4142   11.2056 LP  0  0  0  0  0  0  0  0  0  0  0  0  # atno 27272 bound_to 11410
  220.5894   23.0454   11.1857 LP  0  0  0  0  0  0  0  0  0  0  0  0  # atno 27273 bound_to 11410
  221.2595   24.4884   10.7867 LP  0  0  0  0  0  0  0  0  0  0  0  0  # atno 27274 bound_to 17279
  228.9507   20.0870    6.5051 LP  0  0  0  0  0  0  0  0  0  0  0  0  # atno 27275 bound_to 16954
  227.4159   20.0936    5.9474 LP  0  0  0  0  0  0  0  0  0  0  0  0  # atno 27276 bound_to 16954
  220.5268   21.7790    8.4841 LP  0  0  0  0  0  0  0  0  0  0  0  0  # atno 27277 bound_to 11457
  223.1285   24.4911    6.7947 LP  0  0  0  0  0  0  0  0  0  0  0  0  # atno 27278 bound_to 11523
  225.7963   22.7291    5.3689 LP  0  0  0  0  0  0  0  0  0  0  0  0  # atno 27279 bound_to 11602
  226.6362   21.5407    4.4296 LP  0  0  0  0  0  0  0  0  0  0  0  0  # atno 27280 bound_to 11602
  222.7357   23.9461    4.6075 LP  0  0  0  0  0  0  0  0  0  0  0  0  # atno 27283 bound_to 11599
  221.0114   18.0803    8.9036 LP  0  0  0  0  0  0  0  0  0  0  0  0  # atno 27286 bound_to 11412
  222.2875   18.1813    9.9176 LP  0  0  0  0  0  0  0  0  0  0  0  0  # atno 27287 bound_to 11412
  234.8790   17.5778   10.5163 LP  0  0  0  0  0  0  0  0  0  0  0  0  # atno 27288 bound_to 18684
  233.4814   18.3927   11.1350 LP  0  0  0  0  0  0  0  0  0  0  0  0  # atno 27289 bound_to 18684

> <Gold.Score>
     Fitness  S(hb_ext) S(vdw_ext)  S(hb_int)    S(int)      intcor
     39.99       0.65      28.66       0.00      -0.07      -0.77

> <Gold.Goldscore.Fitness>
39.9919

> <Gold.Goldscore.Internal.Vdw>
-0.4512

> <Gold.Goldscore.Internal.Torsion>
-0.3865

> <Gold.Goldscore.External.Vdw>
28.6614

> <Gold.Goldscore.Internal.HBond>
0.0000

> <Gold.Goldscore.External.HBond>
0.6550

> <Gold.Goldscore.Internal.Correction>
-0.7653

> <Gold.Goldscore.Hbonds>
donor molecule, donor type, donor heavy atom, donor atom, acceptor molecule, acceptor atom, score
      L1  H     8    22       P1 26881  0.11

> <Gold.Goldscore.Internal.Vdw.Weighted>
-0.4512

> <Gold.Goldscore.Internal.Torsion.Weighted>
-0.3865

> <Gold.Goldscore.External.Vdw.Weighted>
39.4094

> <Gold.Goldscore.Internal.HBond.Weighted>
0.0000

> <Gold.Goldscore.External.HBond.Weighted>
0.6550

> <Gold.Goldscore.Internal.Correction.Weighted>
-0.7653

> <Gold.Rescore>
     Score     S(PLP)   S(hbond)     S(cho)   S(metal)  DE(clash)   DE(tors)     intcor
     29.60     -26.85       0.99       0.00       0.00       0.00       0.11       ----

> <Gold.PLP.Fitness>
29.6011

> <Gold.PLP.PLP>
-26.8458

> <Gold.PLP.part.hbond>
-1.1965

> <Gold.PLP.part.metal>
0.0000

> <Gold.PLP.part.buried>
8.7889

> <Gold.PLP.part.nonpolar>
-38.5487

> <Gold.PLP.part.repulsive>
4.2554

> <Gold.PLP.ligand.clash>
0.0000

> <Gold.PLP.ligand.torsion>
0.1092

> <Gold.PLP.Chemscore.Hbond>
0.9913

> <Gold.PLP.Chemscore.CHOScore>
0.0000

> <Gold.PLP.Chemscore.Metal>
0.0000

> <Gold.Chemscore.Hbonds>
donor molecule, donor type, donor heavy atom, donor atom, acceptor molecule, acceptor atom, score
      L1  H     8    22       P1 26881  0.62

> <Gold.PLP.Chemscore.Internal.Correction>
   9.000000E+99

