#       Name:                CT1002167954
#       Creating user name   hitesit
#       Creation time:       Sun Apr 16 22:59:52 2023


#       File generated by GOLD software.
#

@<TRIPOS>MOLECULE
CT1002167954|ligand_prepared|mol2|1|dock6
    29    30     1
SMALL
NO_CHARGES


@<TRIPOS>ATOM
      1 C1         228.0832  22.4193  12.6449 C.3            1 RES1               0.0000
      2 C2         228.6243  23.7924  13.0926 C.ar           1 RES1               0.0000
      3 C3         227.6085  22.5945  11.2054 C.2            1 RES1               0.0000
      4 C4         229.2358  21.4340  12.8043 C.2            1 RES1               0.0000
      5 C5         226.8967  21.9080  13.4947 C.3            1 RES1               0.0000
      6 C6         228.0921  24.4349  14.2065 C.ar           1 RES1               0.0000
      7 C7         229.6552  24.4268  12.4046 C.ar           1 RES1               0.0000
      8 N8         228.3749  22.0513  10.2168 N.am           1 RES1               0.0000
      9 O9         226.5980  23.2334  10.9391 O.2            1 RES1               0.0000
     10 N10        229.7519  20.8609  11.6716 N.am           1 RES1               0.0000
     11 O11        229.7127  21.1614  13.8991 O.2            1 RES1               0.0000
     12 C12        226.3400  20.5717  13.0292 C.3            1 RES1               0.0000
     13 C13        228.5750  25.6655  14.6195 C.ar           1 RES1               0.0000
     14 C14        230.1365  25.6577  12.8192 C.ar           1 RES1               0.0000
     15 C15        229.3940  21.1482  10.3826 C.2            1 RES1               0.0000
     16 C16        229.5977  26.2775  13.9265 C.ar           1 RES1               0.0000
     17 O17        229.9424  20.6311   9.4135 O.2            1 RES1               0.0000
     18 H18        227.2250  21.8100  14.5368 H              1 RES1               0.0000
     19 H19        226.0935  22.6546  13.4650 H              1 RES1               0.0000
     20 H20        227.2853  23.9697  14.7629 H              1 RES1               0.0000
     21 H21        230.0936  23.9584  11.5300 H              1 RES1               0.0000
     22 H22        228.1716  22.3437   9.2662 H              1 RES1               0.0000
     23 H23        230.4693  20.1545  11.8014 H              1 RES1               0.0000
     24 H24        225.5099  20.2591  13.6592 H              1 RES1               0.0000
     25 H25        225.9809  20.6393  12.0044 H              1 RES1               0.0000
     26 H26        227.1057  19.7997  13.0698 H              1 RES1               0.0000
     27 H27        228.1466  26.1498  15.4908 H              1 RES1               0.0000
     28 H28        230.9411  26.1360  12.2704 H              1 RES1               0.0000
     29 H29        229.9761  27.2414  14.2505 H              1 RES1               0.0000
@<TRIPOS>BOND
    1    1    2 1     
    2    1    3 1     
    3    1    4 1     
    4    1    5 1     
    5    2    6 ar    
    6    2    7 ar    
    7    3    8 1     
    8    3    9 2     
    9    4   10 1     
   10    4   11 2     
   11    5   12 1     
   12    5   18 1     
   13    5   19 1     
   14    6   13 ar    
   15    6   20 1     
   16    7   14 ar    
   17    7   21 1     
   18    8   15 1     
   19    8   22 1     
   20   10   15 1     
   21   10   23 1     
   22   12   24 1     
   23   12   25 1     
   24   12   26 1     
   25   13   16 ar    
   26   13   27 1     
   27   14   16 ar    
   28   14   28 1     
   29   15   17 2     
   30   16   29 1     
@<TRIPOS>SUBSTRUCTURE
      1 RES1           1
@<TRIPOS>SET
DONOR_HYDROGENS      STATIC     ATOMS    <user>   **** ""
2 22 23
ATOM$RED        STATIC     ATOMS    COLORGROUP SYSTEM
2 22 23
@<TRIPOS>COMMENT
> <Gold.Version>
2022.3.0

> <Gold.Id.Protein>
unknown|4v3u_clean|pdb

> <Gold.Protein.RotatedTorsions>
[  594  544  543  542 ] final  -32.23 input   59.98 | X-H torsion
[  739  695  696  697 ] final   18.69 input   98.51 | X-H torsion
[ 2556 2523 2524 2525 ] final -159.21 input  111.11 | X-H torsion
[ 2627 2595 2596 2597 ] final -142.75 input   53.40 | X-H torsion
[ 26082 26043 26042 26040 ] final  110.84 input   60.02 | X-H torsion
[ 27179 27119 27118 27114 ] final   61.34 input   60.01 | X-H torsion
[ 7426 7411 7412 7413 ] final  -76.47 input   83.97 | X-H torsion
[ 7476 7453 7454 7455 ] final  -88.15 input   94.79 | X-H torsion
[ 7522 7511 7512 7513 ] final   54.83 input   85.82 | X-H torsion
[ 17193 17173 17174 17175 ] final  -29.47 input   42.33 | X-H torsion
[ 17249 17217 17218 17219 ] final -148.44 input  107.71 | X-H torsion
[ 18293 18271 18272 18273 ] final  -96.08 input   26.15 | X-H torsion
[ 18325 18311 18312 18313 ] final   42.80 input   53.27 | X-H torsion
[ 18407 18359 18360 18361 ] final   58.94 input   33.85 | X-H torsion
[ 18493 18451 18452 18453 ] final   44.49 input  113.35 | X-H torsion
[ 18561 18527 18528 18529 ] final  136.24 input   85.91 | X-H torsion
[ 18501 18462 18461 18459 ] final  -22.74 input   59.98 | X-H torsion
[ 18241 18201 18202 18203 ] final   69.27 input   44.19 | X-H torsion
[ 18297 18276 18275 18272 ] final    6.12 input   59.98 | X-H torsion
[ 10099 10092 10091 10088 ] final -144.26 input   59.98 | X-H torsion
[ 17301 17279 17280 17281 ] final   -9.23 input   44.55 | X-H torsion
[ 16993 16954 16953 16951 ] final  -63.36 input   59.99 | X-H torsion
[ 11475 11457 11458 11459 ] final -117.98 input   48.15 | X-H torsion
[ 11539 11523 11524 11525 ] final -114.50 input  117.79 | X-H torsion
[ 11615 11599 11600 11601 ] final  133.22 input   58.98 | X-H torsion
[ 11423 11412 11411 11408 ] final   24.48 input   60.01 | X-H torsion
[ 27181 27121 27120 27118 ] final -159.54 input   60.02 | X-H torsion
[ 10139 10129 10130 10131 ] final  -25.58 input   28.23 | X-H torsion
[ 17356 17327 17328 17329 ] final   51.98 input   73.50 | X-H torsion
[ 27201  698  697  696 ] final -165.14 input    0.00 | X-H torsion
[ 27204 2526 2525 2524 ] final  -85.88 input    0.00 | X-H torsion
[ 27228 7328 7327 7326 ] final -155.30 input    0.00 | X-H torsion
[ 27233 7514 7513 7512 ] final   30.32 input    0.00 | X-H torsion
[ 27236 17124 17123 17122 ] final -179.53 input    0.00 | X-H torsion
[ 27240 18204 18203 18202 ] final  113.19 input    0.00 | X-H torsion
[ 27243 18274 18273 18272 ] final   45.64 input    0.00 | X-H torsion
[ 27246 18314 18313 18312 ] final   17.46 input   -0.00 | X-H torsion
[ 27249 18362 18361 18360 ] final    4.83 input    0.00 | X-H torsion
[ 27257 17176 17175 17174 ] final -100.77 input   -0.00 | X-H torsion
[ 27259 17220 17219 17218 ] final -157.15 input   -0.00 | X-H torsion
[ 27261 17050 17049 17048 ] final  166.16 input    0.00 | X-H torsion
[ 27270 10132 10131 10130 ] final   71.61 input    0.00 | X-H torsion
[ 27272 11410 11409 11408 ] final -123.61 input   -0.00 | X-H torsion
[ 27279 11602 11601 11600 ] final   71.83 input    0.00 | X-H torsion
[ 27288 18684 18683 18682 ] final  107.06 input   -0.00 | X-H torsion

> <Gold.Protein.ActiveResidues>
 LYS309  TRP311  GLU314  MET341  HIS342  TRP414  ALA417  ARG419  CYS420  VAL421 
 GLY422  ARG423  LEU460  SER462  ALA463  SER482  GLN483  LEU484  ILE485  ARG486 
 ALA502  TRP566  TYR567  LEU569  PRO570  ALA571  VAL572  SER573  ASN574  MET575 
 PHE589  SER590  GLY591  TRP592  TYR593  MET594  GLU597  ILE598  ARG601  ASP602 
 ASP605  ARG608  TRP683  PHE696  HIS697  GLU699  TYR711  ASP714  HEM750  H4B760 

> <Gold.Protein.RotatedAtoms>
  220.2375    8.5368   19.5076 H   0  0  0  0  0  0  0  0  0  0  0  0  # atno 594  bound_to 544 
  221.2385    8.6583   18.1924 H   0  0  0  0  0  0  0  0  0  0  0  0  # atno 595  bound_to 544 
  220.1281    7.4303   18.2787 H   0  0  0  0  0  0  0  0  0  0  0  0  # atno 596  bound_to 544 
  228.1143    6.7562   19.9537 H   0  0  0  0  0  0  0  0  0  0  0  0  # atno 739  bound_to 695 
  225.8907   13.5755   25.5996 H   0  0  0  0  0  0  0  0  0  0  0  0  # atno 2556 bound_to 2523
  223.0870   15.6109   24.5261 H   0  0  0  0  0  0  0  0  0  0  0  0  # atno 2627 bound_to 2595
  230.3395   25.7048   22.3138 H   0  0  0  0  0  0  0  0  0  0  0  0  # atno 7426 bound_to 7411
  232.2892   27.7228   21.1293 H   0  0  0  0  0  0  0  0  0  0  0  0  # atno 7476 bound_to 7453
  232.8118   29.4235   19.5665 H   0  0  0  0  0  0  0  0  0  0  0  0  # atno 7522 bound_to 7511
  230.4101   34.9059   13.5520 H   0  0  0  0  0  0  0  0  0  0  0  0  # atno 10099 bound_to 10092
  226.4299   34.9790   11.5870 H   0  0  0  0  0  0  0  0  0  0  0  0  # atno 10139 bound_to 10129
  221.8234   19.4251    8.8898 H   0  0  0  0  0  0  0  0  0  0  0  0  # atno 11423 bound_to 11412
  220.9823   21.8596    9.5354 H   0  0  0  0  0  0  0  0  0  0  0  0  # atno 11475 bound_to 11457
  221.4793   24.2211    7.2284 H   0  0  0  0  0  0  0  0  0  0  0  0  # atno 11539 bound_to 11523
  223.8201   25.2176    4.4363 H   0  0  0  0  0  0  0  0  0  0  0  0  # atno 11615 bound_to 11599
  228.9020   20.6954    6.8975 H   0  0  0  0  0  0  0  0  0  0  0  0  # atno 16993 bound_to 16954
  226.7683   25.7566    9.0615 H   0  0  0  0  0  0  0  0  0  0  0  0  # atno 17193 bound_to 17173
  224.9489   25.8567   10.6417 H   0  0  0  0  0  0  0  0  0  0  0  0  # atno 17249 bound_to 17217
  220.9494   24.4764   12.1517 H   0  0  0  0  0  0  0  0  0  0  0  0  # atno 17301 bound_to 17279
  219.6491   23.9732   13.0763 H   0  0  0  0  0  0  0  0  0  0  0  0  # atno 17356 bound_to 17327
  221.7555   29.3422   12.2035 H   0  0  0  0  0  0  0  0  0  0  0  0  # atno 18241 bound_to 18201
  224.8459   30.9582   12.0442 H   0  0  0  0  0  0  0  0  0  0  0  0  # atno 18293 bound_to 18271
  226.1806   32.8399    9.2725 H   0  0  0  0  0  0  0  0  0  0  0  0  # atno 18297 bound_to 18276
  228.7675   30.0851   10.7880 H   0  0  0  0  0  0  0  0  0  0  0  0  # atno 18325 bound_to 18311
  232.4329   31.0681   11.5527 H   0  0  0  0  0  0  0  0  0  0  0  0  # atno 18407 bound_to 18359
  234.8551   28.7056    9.1705 H   0  0  0  0  0  0  0  0  0  0  0  0  # atno 18493 bound_to 18451
  230.6433   21.6223    8.3274 H   0  0  0  0  0  0  0  0  0  0  0  0  # atno 18501 bound_to 18462
  235.3454   26.3373   12.5942 H   0  0  0  0  0  0  0  0  0  0  0  0  # atno 18561 bound_to 18527
  224.4114   20.9743   21.6714 H   0  0  0  0  0  0  0  0  0  0  0  0  # atno 26082 bound_to 26043
  231.6545   12.3256   21.4322 H   0  0  0  0  0  0  0  0  0  0  0  0  # atno 27179 bound_to 27119
  229.9705   13.6568   25.3590 H   0  0  0  0  0  0  0  0  0  0  0  0  # atno 27181 bound_to 27121
  226.6960    7.3503   20.7788 LP  0  0  0  0  0  0  0  0  0  0  0  0  # atno 27200 bound_to 695 
  227.2196    7.1693   15.5008 LP  0  0  0  0  0  0  0  0  0  0  0  0  # atno 27201 bound_to 698 
  226.3585    8.4702   16.2533 LP  0  0  0  0  0  0  0  0  0  0  0  0  # atno 27202 bound_to 698 
  224.1961   13.6059   26.0164 LP  0  0  0  0  0  0  0  0  0  0  0  0  # atno 27203 bound_to 2523
  223.6921   17.5715   25.3970 LP  0  0  0  0  0  0  0  0  0  0  0  0  # atno 27204 bound_to 2526
  223.1778   17.4541   23.7472 LP  0  0  0  0  0  0  0  0  0  0  0  0  # atno 27205 bound_to 2526
  222.5334   14.1230   25.2625 LP  0  0  0  0  0  0  0  0  0  0  0  0  # atno 27206 bound_to 2595
  224.4628   20.1521   20.2678 LP  0  0  0  0  0  0  0  0  0  0  0  0  # atno 27210 bound_to 26043
  224.3585   19.3477   21.6851 LP  0  0  0  0  0  0  0  0  0  0  0  0  # atno 27211 bound_to 26043
  230.5207   12.6310   20.3049 LP  0  0  0  0  0  0  0  0  0  0  0  0  # atno 27214 bound_to 27119
  230.3168   11.4011   21.3595 LP  0  0  0  0  0  0  0  0  0  0  0  0  # atno 27215 bound_to 27119
  231.5451   25.0057   20.8873 LP  0  0  0  0  0  0  0  0  0  0  0  0  # atno 27228 bound_to 7328
  230.5679   23.6368   21.3010 LP  0  0  0  0  0  0  0  0  0  0  0  0  # atno 27229 bound_to 7328
  229.2971   27.0882   22.5242 LP  0  0  0  0  0  0  0  0  0  0  0  0  # atno 27230 bound_to 7411
  232.8632   26.8263   19.7427 LP  0  0  0  0  0  0  0  0  0  0  0  0  # atno 27231 bound_to 7453
  234.5234   29.0800   19.5212 LP  0  0  0  0  0  0  0  0  0  0  0  0  # atno 27232 bound_to 7511
  233.0530   33.0896   17.4506 LP  0  0  0  0  0  0  0  0  0  0  0  0  # atno 27233 bound_to 7514
  233.3657   34.0706   18.8435 LP  0  0  0  0  0  0  0  0  0  0  0  0  # atno 27234 bound_to 7514
  226.9989   28.5948    9.9284 LP  0  0  0  0  0  0  0  0  0  0  0  0  # atno 27236 bound_to 17124
  228.6985   28.5597    9.5964 LP  0  0  0  0  0  0  0  0  0  0  0  0  # atno 27237 bound_to 17124
  226.9467   26.9655    7.8141 LP  0  0  0  0  0  0  0  0  0  0  0  0  # atno 27238 bound_to 17173
  223.9770   27.2975   10.8676 LP  0  0  0  0  0  0  0  0  0  0  0  0  # atno 27239 bound_to 17217
  224.3704   28.9992   10.2300 LP  0  0  0  0  0  0  0  0  0  0  0  0  # atno 27240 bound_to 18204
  224.2654   28.6765   11.9285 LP  0  0  0  0  0  0  0  0  0  0  0  0  # atno 27241 bound_to 18204
  224.6821   32.1277   10.7615 LP  0  0  0  0  0  0  0  0  0  0  0  0  # atno 27242 bound_to 18271
  226.7088   33.2520   11.7643 LP  0  0  0  0  0  0  0  0  0  0  0  0  # atno 27243 bound_to 18274
  228.1182   33.5848   10.8142 LP  0  0  0  0  0  0  0  0  0  0  0  0  # atno 27244 bound_to 18274
  227.8854   31.5539   11.1448 LP  0  0  0  0  0  0  0  0  0  0  0  0  # atno 27245 bound_to 18311
  230.0957   32.2567    8.7587 LP  0  0  0  0  0  0  0  0  0  0  0  0  # atno 27246 bound_to 18314
  231.3061   31.1021    8.3096 LP  0  0  0  0  0  0  0  0  0  0  0  0  # atno 27247 bound_to 18314
  231.1545   30.8597   10.3774 LP  0  0  0  0  0  0  0  0  0  0  0  0  # atno 27248 bound_to 18359
  233.2247   29.4494   12.1775 LP  0  0  0  0  0  0  0  0  0  0  0  0  # atno 27249 bound_to 18362
  234.1701   28.0061   12.0250 LP  0  0  0  0  0  0  0  0  0  0  0  0  # atno 27250 bound_to 18362
  233.2459   28.1708    9.5894 LP  0  0  0  0  0  0  0  0  0  0  0  0  # atno 27251 bound_to 18451
  235.9346   25.9708   10.9903 LP  0  0  0  0  0  0  0  0  0  0  0  0  # atno 27252 bound_to 18527
  222.5790   25.7924    8.7917 LP  0  0  0  0  0  0  0  0  0  0  0  0  # atno 27257 bound_to 17176
  223.9219   24.7163    8.5953 LP  0  0  0  0  0  0  0  0  0  0  0  0  # atno 27258 bound_to 17176
  220.5417   27.5477   11.9357 LP  0  0  0  0  0  0  0  0  0  0  0  0  # atno 27259 bound_to 17220
  222.1808   27.9261   11.5232 LP  0  0  0  0  0  0  0  0  0  0  0  0  # atno 27260 bound_to 17220
  227.9155   25.5879    6.1128 LP  0  0  0  0  0  0  0  0  0  0  0  0  # atno 27261 bound_to 17050
  227.6517   26.4069    4.6096 LP  0  0  0  0  0  0  0  0  0  0  0  0  # atno 27262 bound_to 17050
  230.6903   22.1102    6.7758 LP  0  0  0  0  0  0  0  0  0  0  0  0  # atno 27263 bound_to 18462
  229.7805   22.9212    7.8626 LP  0  0  0  0  0  0  0  0  0  0  0  0  # atno 27264 bound_to 18462
  221.0773   30.4625   11.0445 LP  0  0  0  0  0  0  0  0  0  0  0  0  # atno 27265 bound_to 18201
  225.1683   32.2652    8.1348 LP  0  0  0  0  0  0  0  0  0  0  0  0  # atno 27266 bound_to 18276
  226.7684   32.3747    7.8277 LP  0  0  0  0  0  0  0  0  0  0  0  0  # atno 27267 bound_to 18276
  231.0336   36.1059   12.6470 LP  0  0  0  0  0  0  0  0  0  0  0  0  # atno 27268 bound_to 10092
  230.5359   34.7204   11.9403 LP  0  0  0  0  0  0  0  0  0  0  0  0  # atno 27269 bound_to 10092
  224.7864   33.6323   12.0308 LP  0  0  0  0  0  0  0  0  0  0  0  0  # atno 27270 bound_to 10132
  223.7287   33.2083   10.7264 LP  0  0  0  0  0  0  0  0  0  0  0  0  # atno 27271 bound_to 10132
  221.1546   23.4086   10.7150 LP  0  0  0  0  0  0  0  0  0  0  0  0  # atno 27272 bound_to 11410
  221.6370   22.0509   11.6762 LP  0  0  0  0  0  0  0  0  0  0  0  0  # atno 27273 bound_to 11410
  221.5519   25.4778   10.8565 LP  0  0  0  0  0  0  0  0  0  0  0  0  # atno 27274 bound_to 17279
  228.0399   19.7193    5.9220 LP  0  0  0  0  0  0  0  0  0  0  0  0  # atno 27275 bound_to 16954
  227.3477   21.0486    6.5704 LP  0  0  0  0  0  0  0  0  0  0  0  0  # atno 27276 bound_to 16954
  221.4476   20.9410    8.1176 LP  0  0  0  0  0  0  0  0  0  0  0  0  # atno 27277 bound_to 11457
  223.1200   24.7243    6.9062 LP  0  0  0  0  0  0  0  0  0  0  0  0  # atno 27278 bound_to 11523
  225.6496   22.3561    5.5157 LP  0  0  0  0  0  0  0  0  0  0  0  0  # atno 27279 bound_to 11602
  226.7828   21.9137    4.2828 LP  0  0  0  0  0  0  0  0  0  0  0  0  # atno 27280 bound_to 11602
  223.0190   23.7459    4.9258 LP  0  0  0  0  0  0  0  0  0  0  0  0  # atno 27283 bound_to 11599
  221.0411   18.0001    8.9699 LP  0  0  0  0  0  0  0  0  0  0  0  0  # atno 27286 bound_to 11412
  222.3434   18.2741    9.9163 LP  0  0  0  0  0  0  0  0  0  0  0  0  # atno 27287 bound_to 11412
  233.5649   18.3706   10.3536 LP  0  0  0  0  0  0  0  0  0  0  0  0  # atno 27288 bound_to 18684
  234.7956   17.5998   11.2977 LP  0  0  0  0  0  0  0  0  0  0  0  0  # atno 27289 bound_to 18684

> <Gold.Score>
     Fitness  S(hb_ext) S(vdw_ext)  S(hb_int)    S(int)      intcor
     39.35       1.81      27.90       0.00      -0.82      -0.77

> <Gold.Goldscore.Fitness>
39.3531

> <Gold.Goldscore.Internal.Vdw>
-1.2102

> <Gold.Goldscore.Internal.Torsion>
-0.3719

> <Gold.Goldscore.External.Vdw>
27.8951

> <Gold.Goldscore.Internal.HBond>
0.0000

> <Gold.Goldscore.External.HBond>
1.8142

> <Gold.Goldscore.Internal.Correction>
-0.7653

> <Gold.Goldscore.Hbonds>
donor molecule, donor type, donor heavy atom, donor atom, acceptor molecule, acceptor atom, score
      P1  H 18462 18501       L1    17  0.23
      P1  H 16954 16993       L1    17  0.25
      L1  H     8    22       P1 11465  0.14

> <Gold.Goldscore.Internal.Vdw.Weighted>
-1.2102

> <Gold.Goldscore.Internal.Torsion.Weighted>
-0.3719

> <Gold.Goldscore.External.Vdw.Weighted>
38.3557

> <Gold.Goldscore.Internal.HBond.Weighted>
0.0000

> <Gold.Goldscore.External.HBond.Weighted>
1.8142

> <Gold.Goldscore.Internal.Correction.Weighted>
-0.7653

> <Gold.Rescore>
     Score     S(PLP)   S(hbond)     S(cho)   S(metal)  DE(clash)   DE(tors)     intcor
     21.70     -18.17       1.48       0.00       0.00       0.00       0.46       ----

> <Gold.PLP.Fitness>
21.6957

> <Gold.PLP.PLP>
-18.1726

> <Gold.PLP.part.hbond>
-2.8035

> <Gold.PLP.part.metal>
0.0000

> <Gold.PLP.part.buried>
18.9883

> <Gold.PLP.part.nonpolar>
-41.2710

> <Gold.PLP.part.repulsive>
6.4261

> <Gold.PLP.ligand.clash>
0.0000

> <Gold.PLP.ligand.torsion>
0.4585

> <Gold.PLP.Chemscore.Hbond>
1.4800

> <Gold.PLP.Chemscore.CHOScore>
0.0000

> <Gold.PLP.Chemscore.Metal>
0.0000

> <Gold.Chemscore.Hbonds>
donor molecule, donor type, donor heavy atom, donor atom, acceptor molecule, acceptor atom, score
      L1  H     8    22       P1 11465  0.37
      P1  H 18462 18501       L1    17  1.00

> <Gold.PLP.Chemscore.Internal.Correction>
   9.000000E+99

