#       Name:                CT1002167954
#       Creating user name   hitesit
#       Creation time:       Sun Apr 16 22:59:55 2023


#       File generated by GOLD software.
#

@<TRIPOS>MOLECULE
CT1002167954|ligand_prepared|mol2|1|dock10
    29    30     1
SMALL
NO_CHARGES


@<TRIPOS>ATOM
      1 C1         227.4100  18.6676  14.0359 C.3            1 RES1               0.0000
      2 C2         227.5354  20.2040  14.0881 C.ar           1 RES1               0.0000
      3 C3         228.2578  18.2085  12.8532 C.2            1 RES1               0.0000
      4 C4         227.8962  18.1538  15.3865 C.2            1 RES1               0.0000
      5 C5         225.9624  18.1657  13.8267 C.3            1 RES1               0.0000
      6 C6         228.5830  20.8519  13.4403 C.ar           1 RES1               0.0000
      7 C7         226.6115  20.9856  14.7766 C.ar           1 RES1               0.0000
      8 N8         229.4465  17.5986  13.1269 N.am           1 RES1               0.0000
      9 O9         227.9073  18.4140  11.6977 O.2            1 RES1               0.0000
     10 N10        229.0396  17.3991  15.4126 N.am           1 RES1               0.0000
     11 O11        227.3086  18.4096  16.4304 O.2            1 RES1               0.0000
     12 C12        225.8628  16.6697  13.5728 C.3            1 RES1               0.0000
     13 C13        228.7010  22.2314  13.4769 C.ar           1 RES1               0.0000
     14 C14        226.7315  22.3651  14.8121 C.ar           1 RES1               0.0000
     15 C15        229.8537  17.1239  14.3478 C.2            1 RES1               0.0000
     16 C16        227.7752  22.9889  14.1623 C.ar           1 RES1               0.0000
     17 O17        230.8952  16.4837  14.4601 O.2            1 RES1               0.0000
     18 H18        225.3708  18.4129  14.7169 H              1 RES1               0.0000
     19 H19        225.5236  18.6984  12.9740 H              1 RES1               0.0000
     20 H20        229.3225  20.2722  12.8979 H              1 RES1               0.0000
     21 H21        225.7828  20.5164  15.2959 H              1 RES1               0.0000
     22 H22        230.0925  17.4849  12.3522 H              1 RES1               0.0000
     23 H23        229.3088  17.0058  16.3089 H              1 RES1               0.0000
     24 H24        224.8262  16.3704  13.4328 H              1 RES1               0.0000
     25 H25        226.4192  16.3922  12.6799 H              1 RES1               0.0000
     26 H26        226.2673  16.1083  14.4124 H              1 RES1               0.0000
     27 H27        229.5250  22.7174  12.9650 H              1 RES1               0.0000
     28 H28        226.0009  22.9572  15.3533 H              1 RES1               0.0000
     29 H29        227.8677  24.0695  14.1905 H              1 RES1               0.0000
@<TRIPOS>BOND
    1    1    2 1     
    2    1    3 1     
    3    1    4 1     
    4    1    5 1     
    5    2    6 ar    
    6    2    7 ar    
    7    3    8 1     
    8    3    9 2     
    9    4   10 1     
   10    4   11 2     
   11    5   12 1     
   12    5   18 1     
   13    5   19 1     
   14    6   13 ar    
   15    6   20 1     
   16    7   14 ar    
   17    7   21 1     
   18    8   15 1     
   19    8   22 1     
   20   10   15 1     
   21   10   23 1     
   22   12   24 1     
   23   12   25 1     
   24   12   26 1     
   25   13   16 ar    
   26   13   27 1     
   27   14   16 ar    
   28   14   28 1     
   29   15   17 2     
   30   16   29 1     
@<TRIPOS>SUBSTRUCTURE
      1 RES1           1
@<TRIPOS>SET
DONOR_HYDROGENS      STATIC     ATOMS    <user>   **** ""
2 22 23
ATOM$RED        STATIC     ATOMS    COLORGROUP SYSTEM
2 22 23
@<TRIPOS>COMMENT
> <Gold.Version>
2022.3.0

> <Gold.Id.Protein>
unknown|4v3u_clean|pdb

> <Gold.Protein.RotatedTorsions>
[  594  544  543  542 ] final   94.19 input   59.98 | X-H torsion
[  739  695  696  697 ] final -112.15 input   98.51 | X-H torsion
[ 2556 2523 2524 2525 ] final  -51.82 input  111.11 | X-H torsion
[ 2627 2595 2596 2597 ] final   46.47 input   53.40 | X-H torsion
[ 26082 26043 26042 26040 ] final -174.77 input   60.02 | X-H torsion
[ 27179 27119 27118 27114 ] final -142.47 input   60.01 | X-H torsion
[ 7426 7411 7412 7413 ] final  110.59 input   83.97 | X-H torsion
[ 7476 7453 7454 7455 ] final  110.19 input   94.79 | X-H torsion
[ 7522 7511 7512 7513 ] final -119.58 input   85.82 | X-H torsion
[ 17193 17173 17174 17175 ] final  -57.63 input   42.33 | X-H torsion
[ 17249 17217 17218 17219 ] final -173.04 input  107.71 | X-H torsion
[ 18293 18271 18272 18273 ] final  139.89 input   26.15 | X-H torsion
[ 18325 18311 18312 18313 ] final  179.50 input   53.27 | X-H torsion
[ 18407 18359 18360 18361 ] final -109.71 input   33.85 | X-H torsion
[ 18493 18451 18452 18453 ] final  173.61 input  113.35 | X-H torsion
[ 18561 18527 18528 18529 ] final  178.45 input   85.91 | X-H torsion
[ 18501 18462 18461 18459 ] final -156.89 input   59.98 | X-H torsion
[ 18241 18201 18202 18203 ] final   55.24 input   44.19 | X-H torsion
[ 18297 18276 18275 18272 ] final  171.25 input   59.98 | X-H torsion
[ 10099 10092 10091 10088 ] final -122.97 input   59.98 | X-H torsion
[ 17301 17279 17280 17281 ] final  -23.13 input   44.55 | X-H torsion
[ 16993 16954 16953 16951 ] final  -76.62 input   59.99 | X-H torsion
[ 11475 11457 11458 11459 ] final  -95.37 input   48.15 | X-H torsion
[ 11539 11523 11524 11525 ] final  131.72 input  117.79 | X-H torsion
[ 11615 11599 11600 11601 ] final   36.34 input   58.98 | X-H torsion
[ 11423 11412 11411 11408 ] final  118.99 input   60.01 | X-H torsion
[ 27181 27121 27120 27118 ] final  -10.18 input   60.02 | X-H torsion
[ 10139 10129 10130 10131 ] final -161.58 input   28.23 | X-H torsion
[ 17356 17327 17328 17329 ] final  101.61 input   73.50 | X-H torsion
[ 27201  698  697  696 ] final   13.99 input    0.00 | X-H torsion
[ 27204 2526 2525 2524 ] final  175.97 input    0.00 | X-H torsion
[ 27228 7328 7327 7326 ] final -152.13 input    0.00 | X-H torsion
[ 27233 7514 7513 7512 ] final  -26.87 input    0.00 | X-H torsion
[ 27236 17124 17123 17122 ] final  -56.48 input    0.00 | X-H torsion
[ 27240 18204 18203 18202 ] final -119.70 input    0.00 | X-H torsion
[ 27243 18274 18273 18272 ] final  102.51 input    0.00 | X-H torsion
[ 27246 18314 18313 18312 ] final  -47.93 input   -0.00 | X-H torsion
[ 27249 18362 18361 18360 ] final -118.28 input    0.00 | X-H torsion
[ 27257 17176 17175 17174 ] final  112.34 input   -0.00 | X-H torsion
[ 27259 17220 17219 17218 ] final   82.79 input   -0.00 | X-H torsion
[ 27261 17050 17049 17048 ] final  173.87 input    0.00 | X-H torsion
[ 27270 10132 10131 10130 ] final -160.65 input    0.00 | X-H torsion
[ 27272 11410 11409 11408 ] final  -91.90 input   -0.00 | X-H torsion
[ 27279 11602 11601 11600 ] final  170.99 input    0.00 | X-H torsion
[ 27288 18684 18683 18682 ] final   45.89 input   -0.00 | X-H torsion

> <Gold.Protein.ActiveResidues>
 LYS309  TRP311  GLU314  MET341  HIS342  TRP414  ALA417  ARG419  CYS420  VAL421 
 GLY422  ARG423  LEU460  SER462  ALA463  SER482  GLN483  LEU484  ILE485  ARG486 
 ALA502  TRP566  TYR567  LEU569  PRO570  ALA571  VAL572  SER573  ASN574  MET575 
 PHE589  SER590  GLY591  TRP592  TYR593  MET594  GLU597  ILE598  ARG601  ASP602 
 ASP605  ARG608  TRP683  PHE696  HIS697  GLU699  TYR711  ASP714  HEM750  H4B760 

> <Gold.Protein.RotatedAtoms>
  221.2274    8.5837   18.1158 H   0  0  0  0  0  0  0  0  0  0  0  0  # atno 594  bound_to 544 
  220.0665    7.4276   18.3652 H   0  0  0  0  0  0  0  0  0  0  0  0  # atno 595  bound_to 544 
  220.3112    8.6145   19.4965 H   0  0  0  0  0  0  0  0  0  0  0  0  # atno 596  bound_to 544 
  226.6102    6.6885   20.4928 H   0  0  0  0  0  0  0  0  0  0  0  0  # atno 739  bound_to 695 
  224.9341   14.1856   26.4493 H   0  0  0  0  0  0  0  0  0  0  0  0  # atno 2556 bound_to 2523
  222.4688   14.0698   25.1447 H   0  0  0  0  0  0  0  0  0  0  0  0  # atno 2627 bound_to 2595
  229.2174   27.0449   22.4646 H   0  0  0  0  0  0  0  0  0  0  0  0  # atno 7426 bound_to 7411
  232.9064   26.6181   19.9240 H   0  0  0  0  0  0  0  0  0  0  0  0  # atno 7476 bound_to 7453
  234.5475   29.1234   19.5926 H   0  0  0  0  0  0  0  0  0  0  0  0  # atno 7522 bound_to 7511
  230.3235   34.6406   13.3478 H   0  0  0  0  0  0  0  0  0  0  0  0  # atno 10099 bound_to 10092
  227.0146   36.2361   10.7193 H   0  0  0  0  0  0  0  0  0  0  0  0  # atno 10139 bound_to 10129
  222.4727   18.6583    9.8294 H   0  0  0  0  0  0  0  0  0  0  0  0  # atno 11423 bound_to 11412
  220.7384   21.9604    9.3053 H   0  0  0  0  0  0  0  0  0  0  0  0  # atno 11475 bound_to 11457
  222.5002   25.2770    7.3754 H   0  0  0  0  0  0  0  0  0  0  0  0  # atno 11539 bound_to 11523
  224.0267   24.2095    5.2589 H   0  0  0  0  0  0  0  0  0  0  0  0  # atno 11615 bound_to 11599
  228.9716   20.5152    6.8006 H   0  0  0  0  0  0  0  0  0  0  0  0  # atno 16993 bound_to 16954
  227.0041   26.0636    9.2466 H   0  0  0  0  0  0  0  0  0  0  0  0  # atno 17193 bound_to 17173
  225.0885   25.9987   10.9664 H   0  0  0  0  0  0  0  0  0  0  0  0  # atno 17249 bound_to 17217
  220.9779   24.6529   12.2667 H   0  0  0  0  0  0  0  0  0  0  0  0  # atno 17301 bound_to 17279
  219.6324   23.4829   12.5259 H   0  0  0  0  0  0  0  0  0  0  0  0  # atno 17356 bound_to 17327
  221.8583   29.2654   12.0291 H   0  0  0  0  0  0  0  0  0  0  0  0  # atno 18241 bound_to 18201
  224.3191   31.4017   10.6587 H   0  0  0  0  0  0  0  0  0  0  0  0  # atno 18293 bound_to 18271
  226.1389   32.1726    7.5393 H   0  0  0  0  0  0  0  0  0  0  0  0  # atno 18297 bound_to 18276
  227.9839   31.2247   11.6922 H   0  0  0  0  0  0  0  0  0  0  0  0  # atno 18325 bound_to 18311
  231.1218   30.6962   10.4308 H   0  0  0  0  0  0  0  0  0  0  0  0  # atno 18407 bound_to 18359
  233.4651   27.9751    8.8988 H   0  0  0  0  0  0  0  0  0  0  0  0  # atno 18493 bound_to 18451
  230.5590   22.2982    6.7434 H   0  0  0  0  0  0  0  0  0  0  0  0  # atno 18501 bound_to 18462
  235.6324   26.8425   12.3345 H   0  0  0  0  0  0  0  0  0  0  0  0  # atno 18561 bound_to 18527
  224.3524   19.9348   22.1163 H   0  0  0  0  0  0  0  0  0  0  0  0  # atno 26082 bound_to 26043
  230.0318   11.6483   20.9142 H   0  0  0  0  0  0  0  0  0  0  0  0  # atno 27179 bound_to 27119
  229.3721   14.5420   23.9023 H   0  0  0  0  0  0  0  0  0  0  0  0  # atno 27181 bound_to 27121
  228.1770    7.4169   20.2480 LP  0  0  0  0  0  0  0  0  0  0  0  0  # atno 27200 bound_to 695 
  226.3481    8.4623   16.2549 LP  0  0  0  0  0  0  0  0  0  0  0  0  # atno 27201 bound_to 698 
  227.2299    7.1773   15.4992 LP  0  0  0  0  0  0  0  0  0  0  0  0  # atno 27202 bound_to 698 
  225.1378   13.0053   25.1799 LP  0  0  0  0  0  0  0  0  0  0  0  0  # atno 27203 bound_to 2523
  222.5799   17.5189   24.7094 LP  0  0  0  0  0  0  0  0  0  0  0  0  # atno 27204 bound_to 2526
  224.2900   17.5067   24.4349 LP  0  0  0  0  0  0  0  0  0  0  0  0  # atno 27205 bound_to 2526
  223.1323   15.6159   24.6633 LP  0  0  0  0  0  0  0  0  0  0  0  0  # atno 27206 bound_to 2595
  224.4561   21.0653   20.9500 LP  0  0  0  0  0  0  0  0  0  0  0  0  # atno 27210 bound_to 26043
  224.4246   19.4811   20.5549 LP  0  0  0  0  0  0  0  0  0  0  0  0  # atno 27211 bound_to 26043
  231.4317   11.8665   21.7154 LP  0  0  0  0  0  0  0  0  0  0  0  0  # atno 27214 bound_to 27119
  231.0390   12.8474   20.4703 LP  0  0  0  0  0  0  0  0  0  0  0  0  # atno 27215 bound_to 27119
  231.5746   24.9938   20.9232 LP  0  0  0  0  0  0  0  0  0  0  0  0  # atno 27228 bound_to 7328
  230.5384   23.6486   21.2651 LP  0  0  0  0  0  0  0  0  0  0  0  0  # atno 27229 bound_to 7328
  230.4029   25.7676   22.3756 LP  0  0  0  0  0  0  0  0  0  0  0  0  # atno 27230 bound_to 7411
  232.2615   27.9034   20.9179 LP  0  0  0  0  0  0  0  0  0  0  0  0  # atno 27231 bound_to 7453
  232.8220   29.3742   19.4956 LP  0  0  0  0  0  0  0  0  0  0  0  0  # atno 27232 bound_to 7511
  233.8345   33.3163   17.6090 LP  0  0  0  0  0  0  0  0  0  0  0  0  # atno 27233 bound_to 7514
  232.5842   33.8438   18.6852 LP  0  0  0  0  0  0  0  0  0  0  0  0  # atno 27234 bound_to 7514
  228.4184   28.1550   10.2596 LP  0  0  0  0  0  0  0  0  0  0  0  0  # atno 27236 bound_to 17124
  227.2790   28.9994    9.2652 LP  0  0  0  0  0  0  0  0  0  0  0  0  # atno 27237 bound_to 17124
  226.7155   26.6644    7.6326 LP  0  0  0  0  0  0  0  0  0  0  0  0  # atno 27238 bound_to 17173
  223.8429   27.1611   10.5558 LP  0  0  0  0  0  0  0  0  0  0  0  0  # atno 27239 bound_to 17217
  224.9736   28.7856   11.6426 LP  0  0  0  0  0  0  0  0  0  0  0  0  # atno 27240 bound_to 18204
  223.6622   28.8901   10.5159 LP  0  0  0  0  0  0  0  0  0  0  0  0  # atno 27241 bound_to 18204
  225.2038   31.6887   12.1334 LP  0  0  0  0  0  0  0  0  0  0  0  0  # atno 27242 bound_to 18271
  227.4430   33.2592   12.1400 LP  0  0  0  0  0  0  0  0  0  0  0  0  # atno 27243 bound_to 18274
  227.3840   33.5777   10.4385 LP  0  0  0  0  0  0  0  0  0  0  0  0  # atno 27244 bound_to 18274
  228.6445   30.4499   10.2689 LP  0  0  0  0  0  0  0  0  0  0  0  0  # atno 27245 bound_to 18311
  229.9034   31.3521    8.6173 LP  0  0  0  0  0  0  0  0  0  0  0  0  # atno 27246 bound_to 18314
  231.4983   32.0067    8.4509 LP  0  0  0  0  0  0  0  0  0  0  0  0  # atno 27247 bound_to 18314
  232.4288   31.2212   11.4678 LP  0  0  0  0  0  0  0  0  0  0  0  0  # atno 27248 bound_to 18359
  234.5634   28.7273   12.1005 LP  0  0  0  0  0  0  0  0  0  0  0  0  # atno 27249 bound_to 18362
  232.8314   28.7281   12.1020 LP  0  0  0  0  0  0  0  0  0  0  0  0  # atno 27250 bound_to 18362
  234.6075   28.8864    9.8556 LP  0  0  0  0  0  0  0  0  0  0  0  0  # atno 27251 bound_to 18451
  235.6540   25.4770   11.2442 LP  0  0  0  0  0  0  0  0  0  0  0  0  # atno 27252 bound_to 18527
  223.6758   24.5626    8.9945 LP  0  0  0  0  0  0  0  0  0  0  0  0  # atno 27257 bound_to 17176
  222.8250   25.9460    8.3925 LP  0  0  0  0  0  0  0  0  0  0  0  0  # atno 27258 bound_to 17176
  221.5874   27.8389   10.8997 LP  0  0  0  0  0  0  0  0  0  0  0  0  # atno 27259 bound_to 17220
  221.1351   27.6349   12.5592 LP  0  0  0  0  0  0  0  0  0  0  0  0  # atno 27260 bound_to 17220
  227.8287   25.6533    6.1547 LP  0  0  0  0  0  0  0  0  0  0  0  0  # atno 27261 bound_to 17050
  227.7386   26.3415    4.5678 LP  0  0  0  0  0  0  0  0  0  0  0  0  # atno 27262 bound_to 17050
  229.7919   22.8301    8.0761 LP  0  0  0  0  0  0  0  0  0  0  0  0  # atno 27263 bound_to 18462
  230.7638   21.5204    8.1579 LP  0  0  0  0  0  0  0  0  0  0  0  0  # atno 27264 bound_to 18462
  220.9772   30.5373   11.2141 LP  0  0  0  0  0  0  0  0  0  0  0  0  # atno 27265 bound_to 18201
  226.7941   32.7864    8.8970 LP  0  0  0  0  0  0  0  0  0  0  0  0  # atno 27266 bound_to 18276
  225.1845   32.5251    8.8098 LP  0  0  0  0  0  0  0  0  0  0  0  0  # atno 27267 bound_to 18276
  230.9817   36.0853   12.9908 LP  0  0  0  0  0  0  0  0  0  0  0  0  # atno 27268 bound_to 10092
  230.6751   35.0083   11.8022 LP  0  0  0  0  0  0  0  0  0  0  0  0  # atno 27269 bound_to 10092
  223.4139   33.2293   11.4209 LP  0  0  0  0  0  0  0  0  0  0  0  0  # atno 27270 bound_to 10132
  225.1012   33.6113   11.3363 LP  0  0  0  0  0  0  0  0  0  0  0  0  # atno 27271 bound_to 10132
  220.7663   23.2703   10.9475 LP  0  0  0  0  0  0  0  0  0  0  0  0  # atno 27272 bound_to 11410
  222.0254   22.1893   11.4437 LP  0  0  0  0  0  0  0  0  0  0  0  0  # atno 27273 bound_to 11410
  221.5239   25.3037   10.7430 LP  0  0  0  0  0  0  0  0  0  0  0  0  # atno 27274 bound_to 17279
  227.8349   19.7865    5.8925 LP  0  0  0  0  0  0  0  0  0  0  0  0  # atno 27275 bound_to 16954
  227.4826   21.1630    6.6975 LP  0  0  0  0  0  0  0  0  0  0  0  0  # atno 27276 bound_to 16954
  221.6822   20.8441    8.3389 LP  0  0  0  0  0  0  0  0  0  0  0  0  # atno 27277 bound_to 11457
  222.1178   23.6876    6.7619 LP  0  0  0  0  0  0  0  0  0  0  0  0  # atno 27278 bound_to 11523
  226.1455   21.2732    4.9497 LP  0  0  0  0  0  0  0  0  0  0  0  0  # atno 27279 bound_to 11602
  226.2869   22.9965    4.8488 LP  0  0  0  0  0  0  0  0  0  0  0  0  # atno 27280 bound_to 11602
  222.8159   24.7369    4.1172 LP  0  0  0  0  0  0  0  0  0  0  0  0  # atno 27283 bound_to 11599
  221.4935   19.2777    8.6864 LP  0  0  0  0  0  0  0  0  0  0  0  0  # atno 27286 bound_to 11412
  221.2375   17.7681    9.2541 LP  0  0  0  0  0  0  0  0  0  0  0  0  # atno 27287 bound_to 11412
  233.5185   18.3669   11.2336 LP  0  0  0  0  0  0  0  0  0  0  0  0  # atno 27288 bound_to 18684
  234.8419   17.6036   10.4177 LP  0  0  0  0  0  0  0  0  0  0  0  0  # atno 27289 bound_to 18684

> <Gold.Score>
     Fitness  S(hb_ext) S(vdw_ext)  S(hb_int)    S(int)      intcor
     29.85       7.16      17.42       0.00      -1.27      -0.77

> <Gold.Goldscore.Fitness>
29.8458

> <Gold.Goldscore.Internal.Vdw>
-1.5557

> <Gold.Goldscore.Internal.Torsion>
-0.4830

> <Gold.Goldscore.External.Vdw>
17.4230

> <Gold.Goldscore.Internal.HBond>
0.0000

> <Gold.Goldscore.External.HBond>
7.1627

> <Gold.Goldscore.Internal.Correction>
-0.7653

> <Gold.Goldscore.Hbonds>
donor molecule, donor type, donor heavy atom, donor atom, acceptor molecule, acceptor atom, score
      L1  H     8    22       P1 19009  0.19
      L1  H    10    23       P1 27112  1.00

> <Gold.Goldscore.Internal.Vdw.Weighted>
-1.5557

> <Gold.Goldscore.Internal.Torsion.Weighted>
-0.4830

> <Gold.Goldscore.External.Vdw.Weighted>
23.9566

> <Gold.Goldscore.Internal.HBond.Weighted>
0.0000

> <Gold.Goldscore.External.HBond.Weighted>
7.1627

> <Gold.Goldscore.Internal.Correction.Weighted>
-0.7653

> <Gold.Rescore>
     Score     S(PLP)   S(hbond)     S(cho)   S(metal)  DE(clash)   DE(tors)     intcor
     23.86     -20.11       1.98       0.00       0.00       1.80       0.19       ----

> <Gold.PLP.Fitness>
23.8623

> <Gold.PLP.PLP>
-20.1076

> <Gold.PLP.part.hbond>
-3.3809

> <Gold.PLP.part.metal>
0.0000

> <Gold.PLP.part.buried>
-4.2719

> <Gold.PLP.part.nonpolar>
-14.7843

> <Gold.PLP.part.repulsive>
2.5257

> <Gold.PLP.ligand.clash>
1.7985

> <Gold.PLP.ligand.torsion>
0.1874

> <Gold.PLP.Chemscore.Hbond>
1.9760

> <Gold.PLP.Chemscore.CHOScore>
0.0000

> <Gold.PLP.Chemscore.Metal>
0.0000

> <Gold.Chemscore.Hbonds>
donor molecule, donor type, donor heavy atom, donor atom, acceptor molecule, acceptor atom, score
      L1  H    10    23       P1 27112  0.78

> <Gold.PLP.Chemscore.Internal.Correction>
   9.000000E+99

