#       Name:                CT1002167954
#       Creating user name   hitesit
#       Creation time:       Sun Apr 16 22:59:54 2023


#       File generated by GOLD software.
#

@<TRIPOS>MOLECULE
CT1002167954|ligand_prepared|mol2|1|dock9
    29    30     1
SMALL
NO_CHARGES


@<TRIPOS>ATOM
      1 C1         228.8372  26.0382  13.4671 C.3            1 RES1               0.0000
      2 C2         228.5723  24.6984  12.7504 C.ar           1 RES1               0.0000
      3 C3         230.3052  26.0186  13.8831 C.2            1 RES1               0.0000
      4 C4         228.4890  27.1338  12.4657 C.2            1 RES1               0.0000
      5 C5         227.9715  26.2528  14.7304 C.3            1 RES1               0.0000
      6 C6         228.4684  24.6450  11.3637 C.ar           1 RES1               0.0000
      7 C7         228.4325  23.5093  13.4610 C.ar           1 RES1               0.0000
      8 N8         231.1719  26.8014  13.1790 N.am           1 RES1               0.0000
      9 O9         230.7029  25.2972  14.7896 O.2            1 RES1               0.0000
     10 N10        229.5040  27.9340  12.0106 N.am           1 RES1               0.0000
     11 O11        227.3475  27.3008  12.0540 O.2            1 RES1               0.0000
     12 C12        228.0228  27.6716  15.2750 C.3            1 RES1               0.0000
     13 C13        228.2361  23.4459  10.7106 C.ar           1 RES1               0.0000
     14 C14        228.1999  22.3112  12.8060 C.ar           1 RES1               0.0000
     15 C15        230.8348  27.7977  12.2985 C.2            1 RES1               0.0000
     16 C16        228.1022  22.2782  11.4312 C.ar           1 RES1               0.0000
     17 O17        231.6950  28.5228  11.8071 O.2            1 RES1               0.0000
     18 H18        226.9303  26.0037  14.4914 H              1 RES1               0.0000
     19 H19        228.3105  25.5621  15.5124 H              1 RES1               0.0000
     20 H20        228.5687  25.5541  10.7800 H              1 RES1               0.0000
     21 H21        228.5046  23.5114  14.5433 H              1 RES1               0.0000
     22 H22        232.1624  26.6301  13.3201 H              1 RES1               0.0000
     23 H23        229.2435  28.7026  11.4009 H              1 RES1               0.0000
     24 H24        227.3983  27.7675  16.1608 H              1 RES1               0.0000
     25 H25        229.0405  27.9439  15.5468 H              1 RES1               0.0000
     26 H26        227.6684  28.3830  14.5319 H              1 RES1               0.0000
     27 H27        228.1586  23.4256   9.6286 H              1 RES1               0.0000
     28 H28        228.0945  21.3947  13.3772 H              1 RES1               0.0000
     29 H29        227.9206  21.3390  10.9194 H              1 RES1               0.0000
@<TRIPOS>BOND
    1    1    2 1     
    2    1    3 1     
    3    1    4 1     
    4    1    5 1     
    5    2    6 ar    
    6    2    7 ar    
    7    3    8 1     
    8    3    9 2     
    9    4   10 1     
   10    4   11 2     
   11    5   12 1     
   12    5   18 1     
   13    5   19 1     
   14    6   13 ar    
   15    6   20 1     
   16    7   14 ar    
   17    7   21 1     
   18    8   15 1     
   19    8   22 1     
   20   10   15 1     
   21   10   23 1     
   22   12   24 1     
   23   12   25 1     
   24   12   26 1     
   25   13   16 ar    
   26   13   27 1     
   27   14   16 ar    
   28   14   28 1     
   29   15   17 2     
   30   16   29 1     
@<TRIPOS>SUBSTRUCTURE
      1 RES1           1
@<TRIPOS>SET
DONOR_HYDROGENS      STATIC     ATOMS    <user>   **** ""
2 22 23
ATOM$RED        STATIC     ATOMS    COLORGROUP SYSTEM
2 22 23
@<TRIPOS>COMMENT
> <Gold.Version>
2022.3.0

> <Gold.Id.Protein>
unknown|4v3u_clean|pdb

> <Gold.Protein.RotatedTorsions>
[  594  544  543  542 ] final  -71.86 input   59.98 | X-H torsion
[  739  695  696  697 ] final  119.68 input   98.51 | X-H torsion
[ 2556 2523 2524 2525 ] final   -3.23 input  111.11 | X-H torsion
[ 2627 2595 2596 2597 ] final -171.05 input   53.40 | X-H torsion
[ 26082 26043 26042 26040 ] final -119.77 input   60.02 | X-H torsion
[ 27179 27119 27118 27114 ] final   97.76 input   60.01 | X-H torsion
[ 7426 7411 7412 7413 ] final -160.04 input   83.97 | X-H torsion
[ 7476 7453 7454 7455 ] final   -3.74 input   94.79 | X-H torsion
[ 7522 7511 7512 7513 ] final  -65.55 input   85.82 | X-H torsion
[ 17193 17173 17174 17175 ] final  125.52 input   42.33 | X-H torsion
[ 17249 17217 17218 17219 ] final  123.32 input  107.71 | X-H torsion
[ 18293 18271 18272 18273 ] final  141.81 input   26.15 | X-H torsion
[ 18325 18311 18312 18313 ] final  -63.00 input   53.27 | X-H torsion
[ 18407 18359 18360 18361 ] final   88.52 input   33.85 | X-H torsion
[ 18493 18451 18452 18453 ] final   20.88 input  113.35 | X-H torsion
[ 18561 18527 18528 18529 ] final   40.62 input   85.91 | X-H torsion
[ 18501 18462 18461 18459 ] final   25.74 input   59.98 | X-H torsion
[ 18241 18201 18202 18203 ] final -142.63 input   44.19 | X-H torsion
[ 18297 18276 18275 18272 ] final   16.72 input   59.98 | X-H torsion
[ 10099 10092 10091 10088 ] final  -78.28 input   59.98 | X-H torsion
[ 17301 17279 17280 17281 ] final   27.12 input   44.55 | X-H torsion
[ 16993 16954 16953 16951 ] final  -97.35 input   59.99 | X-H torsion
[ 11475 11457 11458 11459 ] final  128.57 input   48.15 | X-H torsion
[ 11539 11523 11524 11525 ] final  -97.15 input  117.79 | X-H torsion
[ 11615 11599 11600 11601 ] final  -34.81 input   58.98 | X-H torsion
[ 11423 11412 11411 11408 ] final  116.67 input   60.01 | X-H torsion
[ 27181 27121 27120 27118 ] final -158.71 input   60.02 | X-H torsion
[ 10139 10129 10130 10131 ] final  -55.17 input   28.23 | X-H torsion
[ 17356 17327 17328 17329 ] final  129.18 input   73.50 | X-H torsion
[ 27201  698  697  696 ] final  109.10 input    0.00 | X-H torsion
[ 27204 2526 2525 2524 ] final   43.42 input    0.00 | X-H torsion
[ 27228 7328 7327 7326 ] final  169.88 input    0.00 | X-H torsion
[ 27233 7514 7513 7512 ] final   46.15 input    0.00 | X-H torsion
[ 27236 17124 17123 17122 ] final  117.73 input    0.00 | X-H torsion
[ 27240 18204 18203 18202 ] final -150.37 input    0.00 | X-H torsion
[ 27243 18274 18273 18272 ] final -142.16 input    0.00 | X-H torsion
[ 27246 18314 18313 18312 ] final  158.93 input   -0.00 | X-H torsion
[ 27249 18362 18361 18360 ] final  -18.53 input    0.00 | X-H torsion
[ 27257 17176 17175 17174 ] final  104.02 input   -0.00 | X-H torsion
[ 27259 17220 17219 17218 ] final -115.12 input   -0.00 | X-H torsion
[ 27261 17050 17049 17048 ] final -139.27 input    0.00 | X-H torsion
[ 27270 10132 10131 10130 ] final  -71.78 input    0.00 | X-H torsion
[ 27272 11410 11409 11408 ] final  123.61 input   -0.00 | X-H torsion
[ 27279 11602 11601 11600 ] final  145.22 input    0.00 | X-H torsion
[ 27288 18684 18683 18682 ] final -158.63 input   -0.00 | X-H torsion

> <Gold.Protein.ActiveResidues>
 LYS309  TRP311  GLU314  MET341  HIS342  TRP414  ALA417  ARG419  CYS420  VAL421 
 GLY422  ARG423  LEU460  SER462  ALA463  SER482  GLN483  LEU484  ILE485  ARG486 
 ALA502  TRP566  TYR567  LEU569  PRO570  ALA571  VAL572  SER573  ASN574  MET575 
 PHE589  SER590  GLY591  TRP592  TYR593  MET594  GLU597  ILE598  ARG601  ASP602 
 ASP605  ARG608  TRP683  PHE696  HIS697  GLU699  TYR711  ASP714  HEM750  H4B760 

> <Gold.Protein.RotatedAtoms>
  219.8969    8.0091   19.3444 H   0  0  0  0  0  0  0  0  0  0  0  0  # atno 594  bound_to 544 
  221.1167    8.9623   18.7524 H   0  0  0  0  0  0  0  0  0  0  0  0  # atno 595  bound_to 544 
  220.5902    7.6535   17.8816 H   0  0  0  0  0  0  0  0  0  0  0  0  # atno 596  bound_to 544 
  227.6847    7.8386   20.6502 H   0  0  0  0  0  0  0  0  0  0  0  0  # atno 739  bound_to 695 
  224.3225   13.8535   26.2505 H   0  0  0  0  0  0  0  0  0  0  0  0  # atno 2556 bound_to 2523
  222.9259   15.3814   24.1939 H   0  0  0  0  0  0  0  0  0  0  0  0  # atno 2627 bound_to 2595
  229.2832   25.9595   21.8769 H   0  0  0  0  0  0  0  0  0  0  0  0  # atno 7426 bound_to 7411
  232.4191   28.0185   19.9849 H   0  0  0  0  0  0  0  0  0  0  0  0  # atno 7476 bound_to 7453
  234.2109   29.5645   20.1704 H   0  0  0  0  0  0  0  0  0  0  0  0  # atno 7522 bound_to 7511
  230.2965   34.3809   12.6857 H   0  0  0  0  0  0  0  0  0  0  0  0  # atno 10099 bound_to 10092
  226.5433   35.3858   11.7440 H   0  0  0  0  0  0  0  0  0  0  0  0  # atno 10139 bound_to 10129
  222.4781   18.6932    9.8158 H   0  0  0  0  0  0  0  0  0  0  0  0  # atno 11423 bound_to 11412
  221.9532   20.8968    8.9349 H   0  0  0  0  0  0  0  0  0  0  0  0  # atno 11475 bound_to 11457
  221.5630   24.0045    7.0992 H   0  0  0  0  0  0  0  0  0  0  0  0  # atno 11539 bound_to 11523
  223.1569   23.7143    5.0416 H   0  0  0  0  0  0  0  0  0  0  0  0  # atno 11615 bound_to 11599
  228.9866   20.2343    6.6155 H   0  0  0  0  0  0  0  0  0  0  0  0  # atno 16993 bound_to 16954
  226.7379   26.7101    7.6285 H   0  0  0  0  0  0  0  0  0  0  0  0  # atno 17193 bound_to 17173
  224.9036   26.7431   11.5141 H   0  0  0  0  0  0  0  0  0  0  0  0  # atno 17249 bound_to 17217
  220.9613   24.1752   11.6942 H   0  0  0  0  0  0  0  0  0  0  0  0  # atno 17301 bound_to 17279
  219.4347   23.4016   12.1660 H   0  0  0  0  0  0  0  0  0  0  0  0  # atno 17356 bound_to 17327
  220.8820   30.6037   11.4611 H   0  0  0  0  0  0  0  0  0  0  0  0  # atno 18241 bound_to 18201
  224.3130   31.3745   10.6682 H   0  0  0  0  0  0  0  0  0  0  0  0  # atno 18293 bound_to 18271
  226.3470   32.8455    9.2254 H   0  0  0  0  0  0  0  0  0  0  0  0  # atno 18297 bound_to 18276
  228.2403   31.2600   10.1946 H   0  0  0  0  0  0  0  0  0  0  0  0  # atno 18325 bound_to 18311
  232.4387   31.4483   11.3070 H   0  0  0  0  0  0  0  0  0  0  0  0  # atno 18407 bound_to 18359
  234.8204   28.8322    9.5070 H   0  0  0  0  0  0  0  0  0  0  0  0  # atno 18493 bound_to 18451
  230.1617   22.1709    8.5679 H   0  0  0  0  0  0  0  0  0  0  0  0  # atno 18501 bound_to 18462
  235.3645   25.3133   11.7780 H   0  0  0  0  0  0  0  0  0  0  0  0  # atno 18561 bound_to 18527
  224.3619   19.2866   21.5438 H   0  0  0  0  0  0  0  0  0  0  0  0  # atno 26082 bound_to 26043
  231.4244   11.8668   21.7136 H   0  0  0  0  0  0  0  0  0  0  0  0  # atno 27179 bound_to 27119
  229.9803   13.6655   25.3558 H   0  0  0  0  0  0  0  0  0  0  0  0  # atno 27181 bound_to 27121
  227.1190    6.2845   20.0930 LP  0  0  0  0  0  0  0  0  0  0  0  0  # atno 27200 bound_to 695 
  227.5050    8.2874   15.7405 LP  0  0  0  0  0  0  0  0  0  0  0  0  # atno 27201 bound_to 698 
  226.0730    7.3521   16.0136 LP  0  0  0  0  0  0  0  0  0  0  0  0  # atno 27202 bound_to 698 
  225.7398   13.3322   25.3755 LP  0  0  0  0  0  0  0  0  0  0  0  0  # atno 27203 bound_to 2523
  223.9120   17.4643   23.8510 LP  0  0  0  0  0  0  0  0  0  0  0  0  # atno 27204 bound_to 2526
  222.9579   17.5613   25.2933 LP  0  0  0  0  0  0  0  0  0  0  0  0  # atno 27205 bound_to 2526
  222.6894   14.3454   25.5843 LP  0  0  0  0  0  0  0  0  0  0  0  0  # atno 27206 bound_to 2595
  224.4039   20.8930   21.8019 LP  0  0  0  0  0  0  0  0  0  0  0  0  # atno 27210 bound_to 26043
  224.4673   20.3059   20.2794 LP  0  0  0  0  0  0  0  0  0  0  0  0  # atno 27211 bound_to 26043
  231.0424   12.8479   20.4723 LP  0  0  0  0  0  0  0  0  0  0  0  0  # atno 27214 bound_to 27119
  230.0268   11.6460   20.9090 LP  0  0  0  0  0  0  0  0  0  0  0  0  # atno 27215 bound_to 27119
  231.1458   24.9947   20.5571 LP  0  0  0  0  0  0  0  0  0  0  0  0  # atno 27228 bound_to 7328
  230.9672   23.6477   21.6311 LP  0  0  0  0  0  0  0  0  0  0  0  0  # atno 27229 bound_to 7328
  230.3380   26.8371   22.9548 LP  0  0  0  0  0  0  0  0  0  0  0  0  # atno 27230 bound_to 7411
  232.7366   26.5380   20.8585 LP  0  0  0  0  0  0  0  0  0  0  0  0  # atno 27231 bound_to 7453
  233.1519   28.9418   18.9292 LP  0  0  0  0  0  0  0  0  0  0  0  0  # atno 27232 bound_to 7511
  232.8285   33.1076   17.5292 LP  0  0  0  0  0  0  0  0  0  0  0  0  # atno 27233 bound_to 7514
  233.5902   34.0526   18.7649 LP  0  0  0  0  0  0  0  0  0  0  0  0  # atno 27234 bound_to 7514
  227.3468   29.0229    9.2151 LP  0  0  0  0  0  0  0  0  0  0  0  0  # atno 27236 bound_to 17124
  228.3506   28.1316   10.3097 LP  0  0  0  0  0  0  0  0  0  0  0  0  # atno 27237 bound_to 17124
  226.9765   26.0305    9.2193 LP  0  0  0  0  0  0  0  0  0  0  0  0  # atno 27238 bound_to 17173
  224.0205   26.4462   10.0297 LP  0  0  0  0  0  0  0  0  0  0  0  0  # atno 27239 bound_to 17217
  225.1684   28.8759   11.2380 LP  0  0  0  0  0  0  0  0  0  0  0  0  # atno 27240 bound_to 18204
  223.4674   28.7998   10.9205 LP  0  0  0  0  0  0  0  0  0  0  0  0  # atno 27241 bound_to 18204
  225.2099   31.7155   12.1240 LP  0  0  0  0  0  0  0  0  0  0  0  0  # atno 27242 bound_to 18271
  228.1789   33.5722   10.9143 LP  0  0  0  0  0  0  0  0  0  0  0  0  # atno 27243 bound_to 18274
  226.6482   33.2646   11.6642 LP  0  0  0  0  0  0  0  0  0  0  0  0  # atno 27244 bound_to 18274
  228.3961   30.4157   11.7196 LP  0  0  0  0  0  0  0  0  0  0  0  0  # atno 27245 bound_to 18311
  231.5480   31.6167    8.3655 LP  0  0  0  0  0  0  0  0  0  0  0  0  # atno 27246 bound_to 18314
  229.8537   31.7420    8.7027 LP  0  0  0  0  0  0  0  0  0  0  0  0  # atno 27247 bound_to 18314
  231.1488   30.4902   10.6162 LP  0  0  0  0  0  0  0  0  0  0  0  0  # atno 27248 bound_to 18359
  233.5511   29.5766   12.1906 LP  0  0  0  0  0  0  0  0  0  0  0  0  # atno 27249 bound_to 18362
  233.8437   27.8788   12.0119 LP  0  0  0  0  0  0  0  0  0  0  0  0  # atno 27250 bound_to 18362
  233.2799   28.0468    9.2598 LP  0  0  0  0  0  0  0  0  0  0  0  0  # atno 27251 bound_to 18451
  235.9158   26.9716   11.7881 LP  0  0  0  0  0  0  0  0  0  0  0  0  # atno 27252 bound_to 18527
  223.7548   24.5808    8.8986 LP  0  0  0  0  0  0  0  0  0  0  0  0  # atno 27257 bound_to 17176
  222.7461   25.9278    8.4884 LP  0  0  0  0  0  0  0  0  0  0  0  0  # atno 27258 bound_to 17176
  220.8951   27.5908   12.4445 LP  0  0  0  0  0  0  0  0  0  0  0  0  # atno 27259 bound_to 17220
  221.8274   27.8830   11.0143 LP  0  0  0  0  0  0  0  0  0  0  0  0  # atno 27260 bound_to 17220
  227.3401   26.1347    6.0923 LP  0  0  0  0  0  0  0  0  0  0  0  0  # atno 27261 bound_to 17050
  228.2271   25.8601    4.6302 LP  0  0  0  0  0  0  0  0  0  0  0  0  # atno 27262 bound_to 17050
  230.9560   21.5820    7.2756 LP  0  0  0  0  0  0  0  0  0  0  0  0  # atno 27263 bound_to 18462
  230.0000   22.8967    7.1205 LP  0  0  0  0  0  0  0  0  0  0  0  0  # atno 27264 bound_to 18462
  221.9271   29.2353   11.7668 LP  0  0  0  0  0  0  0  0  0  0  0  0  # atno 27265 bound_to 18201
  225.1208   32.3190    8.2934 LP  0  0  0  0  0  0  0  0  0  0  0  0  # atno 27266 bound_to 18276
  226.6484   32.3152    7.7164 LP  0  0  0  0  0  0  0  0  0  0  0  0  # atno 27267 bound_to 18276
  230.7458   35.6904   13.5407 LP  0  0  0  0  0  0  0  0  0  0  0  0  # atno 27268 bound_to 10092
  230.9381   35.6648   11.9192 LP  0  0  0  0  0  0  0  0  0  0  0  0  # atno 27269 bound_to 10092
  224.2252   33.2963   10.5221 LP  0  0  0  0  0  0  0  0  0  0  0  0  # atno 27270 bound_to 10132
  224.2900   33.5442   12.2351 LP  0  0  0  0  0  0  0  0  0  0  0  0  # atno 27271 bound_to 10132
  222.2335   22.5318   11.0998 LP  0  0  0  0  0  0  0  0  0  0  0  0  # atno 27272 bound_to 11410
  220.5582   22.9278   11.2914 LP  0  0  0  0  0  0  0  0  0  0  0  0  # atno 27273 bound_to 11410
  221.5402   25.7749   11.3077 LP  0  0  0  0  0  0  0  0  0  0  0  0  # atno 27274 bound_to 17279
  227.5466   19.9645    5.9077 LP  0  0  0  0  0  0  0  0  0  0  0  0  # atno 27275 bound_to 16954
  227.7558   21.2680    6.8688 LP  0  0  0  0  0  0  0  0  0  0  0  0  # atno 27276 bound_to 16954
  220.5139   21.8670    8.6951 LP  0  0  0  0  0  0  0  0  0  0  0  0  # atno 27277 bound_to 11457
  223.0378   24.9369    7.0330 LP  0  0  0  0  0  0  0  0  0  0  0  0  # atno 27278 bound_to 11523
  225.8980   21.3959    5.2197 LP  0  0  0  0  0  0  0  0  0  0  0  0  # atno 27279 bound_to 11602
  226.5344   22.8738    4.5788 LP  0  0  0  0  0  0  0  0  0  0  0  0  # atno 27280 bound_to 11602
  223.6710   25.2237    4.3308 LP  0  0  0  0  0  0  0  0  0  0  0  0  # atno 27283 bound_to 11599
  221.4647   19.2564    8.6734 LP  0  0  0  0  0  0  0  0  0  0  0  0  # atno 27286 bound_to 11412
  221.2609   17.7543    9.2808 LP  0  0  0  0  0  0  0  0  0  0  0  0  # atno 27287 bound_to 11412
  234.6419   17.7334   10.1376 LP  0  0  0  0  0  0  0  0  0  0  0  0  # atno 27288 bound_to 18684
  233.7185   18.2371   11.5137 LP  0  0  0  0  0  0  0  0  0  0  0  0  # atno 27289 bound_to 18684

> <Gold.Score>
     Fitness  S(hb_ext) S(vdw_ext)  S(hb_int)    S(int)      intcor
     44.21       1.77      32.05       0.00      -1.62      -0.77

> <Gold.Goldscore.Fitness>
44.2104

> <Gold.Goldscore.Internal.Vdw>
-1.8082

> <Gold.Goldscore.Internal.Torsion>
-0.5763

> <Gold.Goldscore.External.Vdw>
32.0465

> <Gold.Goldscore.Internal.HBond>
0.0000

> <Gold.Goldscore.External.HBond>
1.7657

> <Gold.Goldscore.Internal.Correction>
-0.7653

> <Gold.Goldscore.Hbonds>
donor molecule, donor type, donor heavy atom, donor atom, acceptor molecule, acceptor atom, score
      P1  H 17217 17249       L1    11  0.27
      L1  H     8    22       P1 18689  0.01
      L1  H    10    23       P1 18311  0.19

> <Gold.Goldscore.Internal.Vdw.Weighted>
-1.8082

> <Gold.Goldscore.Internal.Torsion.Weighted>
-0.5763

> <Gold.Goldscore.External.Vdw.Weighted>
44.0640

> <Gold.Goldscore.Internal.HBond.Weighted>
0.0000

> <Gold.Goldscore.External.HBond.Weighted>
1.7657

> <Gold.Goldscore.Internal.Correction.Weighted>
-0.7653

> <Gold.Rescore>
     Score     S(PLP)   S(hbond)     S(cho)   S(metal)  DE(clash)   DE(tors)     intcor
     32.54     -32.00       1.17       0.00       0.00       0.00       1.48       ----

> <Gold.PLP.Fitness>
32.5397

> <Gold.PLP.PLP>
-31.9968

> <Gold.PLP.part.hbond>
-3.9921

> <Gold.PLP.part.metal>
0.0000

> <Gold.PLP.part.buried>
12.4181

> <Gold.PLP.part.nonpolar>
-41.5863

> <Gold.PLP.part.repulsive>
2.3898

> <Gold.PLP.ligand.clash>
0.0000

> <Gold.PLP.ligand.torsion>
1.4805

> <Gold.PLP.Chemscore.Hbond>
1.1680

> <Gold.PLP.Chemscore.CHOScore>
0.0000

> <Gold.PLP.Chemscore.Metal>
0.0000

> <Gold.Chemscore.Hbonds>
donor molecule, donor type, donor heavy atom, donor atom, acceptor molecule, acceptor atom, score
      L1  H     8    22       P1 18689  0.04
      L1  H    10    23       P1 18311  0.15

> <Gold.PLP.Chemscore.Internal.Correction>
   9.000000E+99

