#       Name:                example_1
#       Creating user name   hitesit
#       Creation time:       Mon Nov  6 23:23:36 2023


#       File generated by GOLD software.
#

@<TRIPOS>MOLECULE
example_1|example_1_prep|mol2|1|dock9
    55    58     1
SMALL
NO_CHARGES


@<TRIPOS>ATOM
      1 O1          19.9760 -29.4784  48.5849 O.3            1 RES1               0.0000
      2 C2          20.5369 -29.9344  47.4182 C.ar           1 RES1               0.0000
      3 C3          20.7596 -29.5445  49.7734 C.3            1 RES1               0.0000
      4 C4          19.6423 -30.2429  46.3826 C.ar           1 RES1               0.0000
      5 C5          21.9107 -30.0968  47.2097 C.ar           1 RES1               0.0000
      6 C6          19.8354 -29.3166  50.9561 C.3            1 RES1               0.0000
      7 O7          18.3120 -30.0502  46.6524 O.3            1 RES1               0.0000
      8 C8          20.1467 -30.7167  45.1699 C.ar           1 RES1               0.0000
      9 C9          22.4241 -30.5634  46.0065 C.ar           1 RES1               0.0000
     10 C10         17.3821 -30.2691  45.6017 C.3            1 RES1               0.0000
     11 C11         21.5414 -30.8915  44.9722 C.ar           1 RES1               0.0000
     12 N12         23.7492 -30.6741  45.8894 N.ar           1 RES1               0.0000
     13 C13         22.1403 -31.3705  43.7915 C.ar           1 RES1               0.0000
     14 C14         24.2275 -31.1152  44.7180 C.ar           1 RES1               0.0000
     15 N15         23.4752 -31.4524  43.6616 N.ar           1 RES1               0.0000
     16 N16         21.3493 -31.7312  42.7037 N.pl3          1 RES1               0.0000
     17 C17         25.7134 -31.1955  44.5623 C.3            1 RES1               0.0000
     18 C18         21.7268 -32.8363  41.8336 C.3            1 RES1               0.0000
     19 C19         21.1899 -34.1327  42.4251 C.ar           1 RES1               0.0000
     20 C20         21.2036 -32.5366  40.4242 C.3            1 RES1               0.0000
     21 C21         22.0210 -35.0962  43.0289 C.ar           1 RES1               0.0000
     22 C22         19.8196 -34.4084  42.3207 C.ar           1 RES1               0.0000
     23 C23         21.5082 -36.2987  43.5474 C.ar           1 RES1               0.0000
     24 C24         19.2926 -35.5941  42.8250 C.ar           1 RES1               0.0000
     25 C25         22.3815 -37.2915  44.1773 C.2            1 RES1               0.0000
     26 C26         20.1301 -36.5289  43.4354 C.ar           1 RES1               0.0000
     27 C27         22.0835 -38.3595  44.9209 C.2            1 RES1               0.0000
     28 C28         23.8678 -37.3051  44.0968 C.3            1 RES1               0.0000
     29 N29         23.1857 -39.0563  45.3350 N.2            1 RES1               0.0000
     30 N30         24.2322 -38.5029  44.8984 N.2            1 RES1               0.0000
     31 H1          21.2281 -30.5243  49.8535 H              1 RES1               0.0000
     32 H2          21.5295 -28.7747  49.7520 H              1 RES1               0.0000
     33 H3          22.5993 -29.8495  48.0162 H              1 RES1               0.0000
     34 H4          20.4101 -29.3620  51.8799 H              1 RES1               0.0000
     35 H5          19.0657 -30.0870  50.9690 H              1 RES1               0.0000
     36 H6          19.3673 -28.3373  50.8675 H              1 RES1               0.0000
     37 H7          19.4578 -30.9563  44.3613 H              1 RES1               0.0000
     38 H8          16.3732 -30.0780  45.9642 H              1 RES1               0.0000
     39 H9          17.4560 -31.3006  45.2606 H              1 RES1               0.0000
     40 H10         17.6041 -29.5965  44.7745 H              1 RES1               0.0000
     41 H11         20.4958 -31.2156  42.5141 H              1 RES1               0.0000
     42 H12         25.9545 -31.5675  43.5676 H              1 RES1               0.0000
     43 H13         26.1208 -31.8724  45.3117 H              1 RES1               0.0000
     44 H14         26.1462 -30.2050  44.6941 H              1 RES1               0.0000
     45 H15         22.8136 -32.8945  41.7964 H              1 RES1               0.0000
     46 H16         21.6297 -31.5988  40.0705 H              1 RES1               0.0000
     47 H17         20.1179 -32.4551  40.4498 H              1 RES1               0.0000
     48 H18         21.4913 -33.3427  39.7511 H              1 RES1               0.0000
     49 H19         23.0909 -34.9047  43.0962 H              1 RES1               0.0000
     50 H20         19.1601 -33.6874  41.8399 H              1 RES1               0.0000
     51 H21         18.2250 -35.7926  42.7431 H              1 RES1               0.0000
     52 H22         19.7066 -37.4511  43.8306 H              1 RES1               0.0000
     53 H23         21.0639 -38.6475  45.1729 H              1 RES1               0.0000
     54 H24         24.2919 -36.4002  44.5293 H              1 RES1               0.0000
     55 H25         24.2035 -37.4066  43.0658 H              1 RES1               0.0000
@<TRIPOS>BOND
    1    1    2 1     
    2    1    3 1     
    3    2    4 ar    
    4    2    5 ar    
    5    3    6 1     
    6    4    7 1     
    7    4    8 ar    
    8    5    9 ar    
    9    7   10 1     
   10    8   11 ar    
   11    9   12 ar    
   12   11   13 ar    
   13   12   14 ar    
   14   13   15 ar    
   15   13   16 1     
   16   14   17 1     
   17   16   18 1     
   18   18   19 1     
   19   18   20 1     
   20   19   21 ar    
   21   19   22 ar    
   22   21   23 ar    
   23   22   24 ar    
   24   23   25 1     
   25   23   26 ar    
   26   25   27 2     
   27   25   28 1     
   28   27   29 1     
   29   28   30 1     
   30    9   11 ar    
   31   14   15 ar    
   32   24   26 ar    
   33   29   30 2     
   34    3   31 1     
   35    3   32 1     
   36    5   33 1     
   37    6   34 1     
   38    6   35 1     
   39    6   36 1     
   40    8   37 1     
   41   10   38 1     
   42   10   39 1     
   43   10   40 1     
   44   16   41 1     
   45   17   42 1     
   46   17   43 1     
   47   17   44 1     
   48   18   45 1     
   49   20   46 1     
   50   20   47 1     
   51   20   48 1     
   52   21   49 1     
   53   22   50 1     
   54   24   51 1     
   55   26   52 1     
   56   27   53 1     
   57   28   54 1     
   58   28   55 1     
@<TRIPOS>SUBSTRUCTURE
      1 RES1           1
@<TRIPOS>SET
DONOR_HYDROGENS      STATIC     ATOMS    <user>   **** ""
1 41
ATOM$RED        STATIC     ATOMS    COLORGROUP SYSTEM
1 41
@<TRIPOS>COMMENT
> <Gold.Version>
2022.3.0

> <Gold.Id.Protein>
unknown|5ovf_clean|pdb

> <Gold.Protein.ActiveResidues>
 ILE839  VAL852  ILE856  LEU859  VAL871  LEU872  GLU873  VAL874  VAL875  SER876 
 ALA877  MET878  ASN879  SER880  SER881  PRO882  VAL883  TYR884  ARG885  LEU886 
 ASP887  HIS888  THR889  PHE890  GLU891  GLN892  ILE893  PRO894  SER895  ARG896 
 GLN897  LYS898  LYS899  ILE900  LEU901  GLU902  GLU903  ALA904  HIS905  GLU906 
 LEU907  SER908  GLU909  LYS914  GLU836  ILE839  VAL852  ILE855  ILE856  LEU859 
 GLN863  VAL871  LEU872  VAL874  VAL875  SER876  ALA877  MET878  ASN879  SER880 
 SER881  PRO882  VAL883  TYR884  ARG885  LEU886  ASP887  HIS888  THR889  PHE890 
 GLU891  GLN892  ILE893  PRO894  SER895  ARG896  GLN897  LYS898  LYS899  ILE900 
 LEU901  GLU902  GLU903  ALA904  HIS905  GLU906  LEU907  SER908  GLU909  ASP910 
 LYS914 

> <Gold.Score>
     Fitness  S(hb_ext) S(vdw_ext)  S(hb_int)    S(int)      intcor
     77.44       0.47      59.14       0.00      -4.35      -8.15

> <Gold.Goldscore.Fitness>
77.4358

> <Gold.Goldscore.Internal.Vdw>
-7.7273

> <Gold.Goldscore.Internal.Torsion>
-4.7745

> <Gold.Goldscore.External.Vdw>
59.1427

> <Gold.Goldscore.Internal.HBond>
0.0000

> <Gold.Goldscore.External.HBond>
0.4652

> <Gold.Goldscore.Internal.Correction>
-8.1511

> <Gold.Goldscore.Reference.RMSD>
0.7757

> <Gold.Goldscore.Hbonds>
donor molecule, donor type, donor heavy atom, donor atom, acceptor molecule, acceptor atom, score
      L1  H    16    41       P1  2553  0.23

> <Gold.Goldscore.Internal.Vdw.Weighted>
-7.7273

> <Gold.Goldscore.Internal.Torsion.Weighted>
-4.7745

> <Gold.Goldscore.External.Vdw.Weighted>
81.3213

> <Gold.Goldscore.Internal.HBond.Weighted>
0.0000

> <Gold.Goldscore.External.HBond.Weighted>
0.4652

> <Gold.Goldscore.Internal.Correction.Weighted>
-8.1511

> <Gold.Rescore>
     Score         DG    S(hbond)    S(metal)    S(lipo)     H(rot)  DE(clash)    DE(int)     intcor
     32.33     -34.43       0.81        0.00     259.86       1.63       0.84       1.25       ----

> <Gold.Chemscore.Fitness>
32.3290

> <Gold.Chemscore.DG>
-34.4263

> <Gold.Chemscore.ZeroCoef>
-5.4800

> <Gold.Chemscore.Hbond>
0.8126

> <Gold.Chemscore.Metal>
0.0000

> <Gold.Chemscore.Lipo>
259.8580

> <Gold.Chemscore.Internal_Hbond>
0.0000

> <Gold.Chemscore.DEClash>
0.8449

> <Gold.Chemscore.DEInternal>
1.2524

> <Gold.Chemscore.Rot>
1.6294

> <Gold.Chemscore.Internal.Correction>
   9.000000E+99

> <Gold.Chemscore.Reference.RMSD>
0.0000

> <Gold.Chemscore.Hbonds>
donor molecule, donor type, donor heavy atom, donor atom, acceptor molecule, acceptor atom, score
      L1  H    16    41       P1  2553  0.51

> <Gold.Chemscore.Hbond.Weighted>
-2.7142

> <Gold.Chemscore.Metal.Weighted>
-0.0000

> <Gold.Chemscore.Lipo.Weighted>
-30.4034

> <Gold.Chemscore.Internal_Hbond.Weighted>
0.0000

> <Gold.Chemscore.DEClash.Weighted>
0.8449

> <Gold.Chemscore.DEInternal.Weighted>
1.2524

> <Gold.Chemscore.Rot.Weighted>
4.1713

> <Gold.Chemscore.Internal.Correction.Weighted>
   9.000000E+99

> <Gold.Reference.RMSD>
0.7757

