#       Name:                example_1
#       Creating user name   hitesit
#       Creation time:       Mon Nov  6 23:22:31 2023


#       File generated by GOLD software.
#

@<TRIPOS>MOLECULE
example_1
    55    58     1
SMALL
NO_CHARGES


@<TRIPOS>ATOM
      1 O1           3.3897   1.7065   4.0509 O.3            1 RES1               0.0000
      2 C2           2.3956   1.6170   3.1088 C.ar           1 RES1               0.0000
      3 C3           4.0992   2.9377   4.1585 C.3            1 RES1               0.0000
      4 C4           1.7270   0.3861   3.0320 C.ar           1 RES1               0.0000
      5 C5           2.0197   2.6569   2.2518 C.ar           1 RES1               0.0000
      6 C6           5.1413   2.7828   5.2516 C.3            1 RES1               0.0000
      7 O7           2.1397  -0.5843   3.9082 O.3            1 RES1               0.0000
      8 C8           0.7078   0.2259   2.0913 C.ar           1 RES1               0.0000
      9 C9           1.0049   2.5104   1.3150 C.ar           1 RES1               0.0000
     10 C10          1.4526  -1.8270   3.8957 C.3            1 RES1               0.0000
     11 C11          0.3426   1.2823   1.2163 C.ar           1 RES1               0.0000
     12 N12          0.7018   3.5597   0.5475 N.ar           1 RES1               0.0000
     13 C13         -0.6625   1.2114   0.2330 C.ar           1 RES1               0.0000
     14 C14         -0.2873   3.4040  -0.3430 C.ar           1 RES1               0.0000
     15 N15         -0.9897   2.2763  -0.5182 N.ar           1 RES1               0.0000
     16 N16         -1.3778   0.0308   0.0492 N.pl3          1 RES1               0.0000
     17 C17         -0.6657   4.5900  -1.1728 C.3            1 RES1               0.0000
     18 C18         -2.5268  -0.0203  -0.8441 C.3            1 RES1               0.0000
     19 C19         -2.1028  -0.6732  -2.1528 C.ar           1 RES1               0.0000
     20 C20         -3.6609  -0.7587  -0.1239 C.3            1 RES1               0.0000
     21 C21         -2.0490  -2.0700  -2.3249 C.ar           1 RES1               0.0000
     22 C22         -1.6977   0.1438  -3.2173 C.ar           1 RES1               0.0000
     23 C23         -1.6309  -2.6534  -3.5343 C.ar           1 RES1               0.0000
     24 C24         -1.2778  -0.4140  -4.4216 C.ar           1 RES1               0.0000
     25 C25         -1.5833  -4.1075  -3.7033 C.2            1 RES1               0.0000
     26 C26         -1.2479  -1.8005  -4.5785 C.ar           1 RES1               0.0000
     27 C27         -1.9612  -5.0879  -2.8797 C.2            1 RES1               0.0000
     28 C28         -1.0779  -4.8178  -4.9098 C.3            1 RES1               0.0000
     29 N29         -1.7593  -6.3383  -3.3969 N.2            1 RES1               0.0000
     30 N30         -1.2564  -6.2494  -4.5507 N.2            1 RES1               0.0000
     31 H1           4.5870   3.1674   3.2123 H              1 RES1               0.0000
     32 H2           3.4099   3.7405   4.4158 H              1 RES1               0.0000
     33 H3           2.5392   3.6114   2.3214 H              1 RES1               0.0000
     34 H4           5.6996   3.7120   5.3552 H              1 RES1               0.0000
     35 H5           5.8245   1.9760   4.9901 H              1 RES1               0.0000
     36 H6           4.6473   2.5492   6.1936 H              1 RES1               0.0000
     37 H7           0.1836  -0.7265   2.0277 H              1 RES1               0.0000
     38 H8           1.8899  -2.4911   4.6398 H              1 RES1               0.0000
     39 H9           1.5395  -2.2799   2.9092 H              1 RES1               0.0000
     40 H10          0.4015  -1.6630   4.1285 H              1 RES1               0.0000
     41 H11         -1.0938  -0.8076   0.5458 H              1 RES1               0.0000
     42 H12         -1.4769   4.3178  -1.8464 H              1 RES1               0.0000
     43 H13          0.1954   4.9156  -1.7545 H              1 RES1               0.0000
     44 H14         -0.9910   5.3998  -0.5215 H              1 RES1               0.0000
     45 H15         -2.8515   0.9981  -1.0523 H              1 RES1               0.0000
     46 H16         -3.9072  -0.2346   0.7984 H              1 RES1               0.0000
     47 H17         -3.3426  -1.7737   0.1093 H              1 RES1               0.0000
     48 H18         -4.5385  -0.7924  -0.7677 H              1 RES1               0.0000
     49 H19         -2.3394  -2.7166  -1.4981 H              1 RES1               0.0000
     50 H20         -1.7116   1.2265  -3.1010 H              1 RES1               0.0000
     51 H21         -0.9721   0.2326  -5.2428 H              1 RES1               0.0000
     52 H22         -0.9221  -2.2261  -5.5265 H              1 RES1               0.0000
     53 H23         -2.3880  -4.9099  -1.8937 H              1 RES1               0.0000
     54 H24         -0.0290  -4.5868  -5.0899 H              1 RES1               0.0000
     55 H25         -1.6632  -4.5589  -5.7909 H              1 RES1               0.0000
@<TRIPOS>BOND
    1    1    2 1     
    2    1    3 1     
    3    2    4 ar    
    4    2    5 ar    
    5    3    6 1     
    6    4    7 1     
    7    4    8 ar    
    8    5    9 ar    
    9    7   10 1     
   10    8   11 ar    
   11    9   12 ar    
   12   11   13 ar    
   13   12   14 ar    
   14   13   15 ar    
   15   13   16 1     
   16   14   17 1     
   17   16   18 1     
   18   18   19 1     
   19   18   20 1     
   20   19   21 ar    
   21   19   22 ar    
   22   21   23 ar    
   23   22   24 ar    
   24   23   25 1     
   25   23   26 ar    
   26   25   27 2     
   27   25   28 1     
   28   27   29 1     
   29   28   30 1     
   30    9   11 ar    
   31   14   15 ar    
   32   24   26 ar    
   33   29   30 2     
   34    3   31 1     
   35    3   32 1     
   36    5   33 1     
   37    6   34 1     
   38    6   35 1     
   39    6   36 1     
   40    8   37 1     
   41   10   38 1     
   42   10   39 1     
   43   10   40 1     
   44   16   41 1     
   45   17   42 1     
   46   17   43 1     
   47   17   44 1     
   48   18   45 1     
   49   20   46 1     
   50   20   47 1     
   51   20   48 1     
   52   21   49 1     
   53   22   50 1     
   54   24   51 1     
   55   26   52 1     
   56   27   53 1     
   57   28   54 1     
   58   28   55 1     
@<TRIPOS>SUBSTRUCTURE
      1 RES1           1
@<TRIPOS>SET
DONOR_HYDROGENS      STATIC     ATOMS    <user>   **** ""
1 41
ATOM$RED        STATIC     ATOMS    COLORGROUP SYSTEM
1 41
