#       Name:                example_1
#       Creating user name   hitesit
#       Creation time:       Mon Nov  6 23:23:30 2023


#       File generated by GOLD software.
#

@<TRIPOS>MOLECULE
example_1|example_1_prep|mol2|1|dock8
    55    58     1
SMALL
NO_CHARGES


@<TRIPOS>ATOM
      1 O1          24.9314 -28.5993  47.3171 O.3            1 RES1               0.0000
      2 C2          23.9995 -29.3234  46.6162 C.ar           1 RES1               0.0000
      3 C3          24.4609 -27.6148  48.2337 C.3            1 RES1               0.0000
      4 C4          24.5052 -30.2783  45.7216 C.ar           1 RES1               0.0000
      5 C5          22.6150 -29.1703  46.7465 C.ar           1 RES1               0.0000
      6 C6          25.6700 -26.9406  48.8569 C.3            1 RES1               0.0000
      7 O7          25.8706 -30.3819  45.6525 O.3            1 RES1               0.0000
      8 C8          23.6112 -31.0462  44.9730 C.ar           1 RES1               0.0000
      9 C9          21.7162 -29.9311  46.0102 C.ar           1 RES1               0.0000
     10 C10         26.4202 -31.3407  44.7607 C.3            1 RES1               0.0000
     11 C11         22.2080 -30.8742  45.1017 C.ar           1 RES1               0.0000
     12 N12         20.4117 -29.7291  46.2084 N.ar           1 RES1               0.0000
     13 C13         21.2327 -31.5933  44.3849 C.ar           1 RES1               0.0000
     14 C14         19.5590 -30.4797  45.4978 C.ar           1 RES1               0.0000
     15 N15         19.9198 -31.4130  44.6064 N.ar           1 RES1               0.0000
     16 N16         21.6176 -32.5517  43.4508 N.pl3          1 RES1               0.0000
     17 C17         18.0961 -30.2935  45.7499 C.3            1 RES1               0.0000
     18 C18         22.0906 -33.8633  43.8712 C.3            1 RES1               0.0000
     19 C19         20.8872 -34.7425  44.1834 C.ar           1 RES1               0.0000
     20 C20         22.9951 -34.4228  42.7671 C.3            1 RES1               0.0000
     21 C21         20.7933 -35.5170  45.3560 C.ar           1 RES1               0.0000
     22 C22         19.8502 -34.8297  43.2444 C.ar           1 RES1               0.0000
     23 C23         19.6838 -36.3418  45.6141 C.ar           1 RES1               0.0000
     24 C24         18.7448 -35.6425  43.4796 C.ar           1 RES1               0.0000
     25 C25         19.5950 -37.1394  46.8393 C.2            1 RES1               0.0000
     26 C26         18.6621 -36.3892  44.6558 C.ar           1 RES1               0.0000
     27 C27         20.5353 -37.8177  47.5012 C.2            1 RES1               0.0000
     28 C28         18.3580 -37.3540  47.6389 C.3            1 RES1               0.0000
     29 N29         20.0631 -38.4467  48.6206 N.2            1 RES1               0.0000
     30 N30         18.8285 -38.2211  48.7511 N.2            1 RES1               0.0000
     31 H1          23.8570 -26.8774  47.7068 H              1 RES1               0.0000
     32 H2          23.8608 -28.0882  49.0092 H              1 RES1               0.0000
     33 H3          22.2299 -28.4312  47.4474 H              1 RES1               0.0000
     34 H4          25.3382 -26.1814  49.5636 H              1 RES1               0.0000
     35 H5          26.2677 -26.4730  48.0758 H              1 RES1               0.0000
     36 H6          26.2714 -27.6838  49.3784 H              1 RES1               0.0000
     37 H7          23.9971 -31.7905  44.2781 H              1 RES1               0.0000
     38 H8          27.5073 -31.3063  44.8157 H              1 RES1               0.0000
     39 H9          26.1009 -31.1159  43.7442 H              1 RES1               0.0000
     40 H10         26.0739 -32.3351  45.0384 H              1 RES1               0.0000
     41 H11         21.5677 -32.3326  42.4610 H              1 RES1               0.0000
     42 H12         17.5286 -30.9641  45.1063 H              1 RES1               0.0000
     43 H13         17.8189 -29.2627  45.5344 H              1 RES1               0.0000
     44 H14         17.8759 -30.5184  46.7923 H              1 RES1               0.0000
     45 H15         22.6810 -33.7461  44.7787 H              1 RES1               0.0000
     46 H16         23.8291 -33.7424  42.6014 H              1 RES1               0.0000
     47 H17         22.4226 -34.5262  41.8465 H              1 RES1               0.0000
     48 H18         23.3761 -35.3972  43.0690 H              1 RES1               0.0000
     49 H19         21.6027 -35.4759  46.0835 H              1 RES1               0.0000
     50 H20         19.9099 -34.2556  42.3210 H              1 RES1               0.0000
     51 H21         17.9430 -35.6957  42.7446 H              1 RES1               0.0000
     52 H22         17.7906 -37.0181  44.8318 H              1 RES1               0.0000
     53 H23         21.5753 -37.8656  47.1816 H              1 RES1               0.0000
     54 H24         17.5919 -37.8549  47.0488 H              1 RES1               0.0000
     55 H25         17.9666 -36.4105  48.0163 H              1 RES1               0.0000
@<TRIPOS>BOND
    1    1    2 1     
    2    1    3 1     
    3    2    4 ar    
    4    2    5 ar    
    5    3    6 1     
    6    4    7 1     
    7    4    8 ar    
    8    5    9 ar    
    9    7   10 1     
   10    8   11 ar    
   11    9   12 ar    
   12   11   13 ar    
   13   12   14 ar    
   14   13   15 ar    
   15   13   16 1     
   16   14   17 1     
   17   16   18 1     
   18   18   19 1     
   19   18   20 1     
   20   19   21 ar    
   21   19   22 ar    
   22   21   23 ar    
   23   22   24 ar    
   24   23   25 1     
   25   23   26 ar    
   26   25   27 2     
   27   25   28 1     
   28   27   29 1     
   29   28   30 1     
   30    9   11 ar    
   31   14   15 ar    
   32   24   26 ar    
   33   29   30 2     
   34    3   31 1     
   35    3   32 1     
   36    5   33 1     
   37    6   34 1     
   38    6   35 1     
   39    6   36 1     
   40    8   37 1     
   41   10   38 1     
   42   10   39 1     
   43   10   40 1     
   44   16   41 1     
   45   17   42 1     
   46   17   43 1     
   47   17   44 1     
   48   18   45 1     
   49   20   46 1     
   50   20   47 1     
   51   20   48 1     
   52   21   49 1     
   53   22   50 1     
   54   24   51 1     
   55   26   52 1     
   56   27   53 1     
   57   28   54 1     
   58   28   55 1     
@<TRIPOS>SUBSTRUCTURE
      1 RES1           1
@<TRIPOS>SET
DONOR_HYDROGENS      STATIC     ATOMS    <user>   **** ""
1 41
ATOM$RED        STATIC     ATOMS    COLORGROUP SYSTEM
1 41
@<TRIPOS>COMMENT
> <Gold.Version>
2022.3.0

> <Gold.Id.Protein>
unknown|5ovf_clean|pdb

> <Gold.Protein.ActiveResidues>
 ILE839  VAL852  ILE856  LEU859  VAL871  LEU872  GLU873  VAL874  VAL875  SER876 
 ALA877  MET878  ASN879  SER880  SER881  PRO882  VAL883  TYR884  ARG885  LEU886 
 ASP887  HIS888  THR889  PHE890  GLU891  GLN892  ILE893  PRO894  SER895  ARG896 
 GLN897  LYS898  LYS899  ILE900  LEU901  GLU902  GLU903  ALA904  HIS905  GLU906 
 LEU907  SER908  GLU909  LYS914  GLU836  ILE839  VAL852  ILE855  ILE856  LEU859 
 GLN863  VAL871  LEU872  VAL874  VAL875  SER876  ALA877  MET878  ASN879  SER880 
 SER881  PRO882  VAL883  TYR884  ARG885  LEU886  ASP887  HIS888  THR889  PHE890 
 GLU891  GLN892  ILE893  PRO894  SER895  ARG896  GLN897  LYS898  LYS899  ILE900 
 LEU901  GLU902  GLU903  ALA904  HIS905  GLU906  LEU907  SER908  GLU909  ASP910 
 LYS914 

> <Gold.Score>
     Fitness  S(hb_ext) S(vdw_ext)  S(hb_int)    S(int)      intcor
     61.50       0.00      47.74       0.00      -4.14      -8.15

> <Gold.Goldscore.Fitness>
61.4997

> <Gold.Goldscore.Internal.Vdw>
-2.0150

> <Gold.Goldscore.Internal.Torsion>
-10.2793

> <Gold.Goldscore.External.Vdw>
47.7403

> <Gold.Goldscore.Internal.HBond>
0.0000

> <Gold.Goldscore.External.HBond>
0.0000

> <Gold.Goldscore.Internal.Correction>
-8.1511

> <Gold.Goldscore.Reference.RMSD>
3.9105

> <Gold.Goldscore.Internal.Vdw.Weighted>
-2.0150

> <Gold.Goldscore.Internal.Torsion.Weighted>
-10.2793

> <Gold.Goldscore.External.Vdw.Weighted>
65.6429

> <Gold.Goldscore.Internal.HBond.Weighted>
0.0000

> <Gold.Goldscore.External.HBond.Weighted>
0.0000

> <Gold.Goldscore.Internal.Correction.Weighted>
-8.1511

> <Gold.Rescore>
     Score         DG    S(hbond)    S(metal)    S(lipo)     H(rot)  DE(clash)    DE(int)     intcor
     20.72     -28.94       0.00        0.00     236.13       1.63       6.65       1.57       ----

> <Gold.Chemscore.Fitness>
20.7247

> <Gold.Chemscore.DG>
-28.9362

> <Gold.Chemscore.ZeroCoef>
-5.4800

> <Gold.Chemscore.Hbond>
0.0000

> <Gold.Chemscore.Metal>
0.0000

> <Gold.Chemscore.Lipo>
236.1327

> <Gold.Chemscore.Internal_Hbond>
0.0000

> <Gold.Chemscore.DEClash>
6.6456

> <Gold.Chemscore.DEInternal>
1.5658

> <Gold.Chemscore.Rot>
1.6294

> <Gold.Chemscore.Internal.Correction>
   9.000000E+99

> <Gold.Chemscore.Reference.RMSD>
0.0000

> <Gold.Chemscore.Hbond.Weighted>
-0.0000

> <Gold.Chemscore.Metal.Weighted>
-0.0000

> <Gold.Chemscore.Lipo.Weighted>
-27.6275

> <Gold.Chemscore.Internal_Hbond.Weighted>
0.0000

> <Gold.Chemscore.DEClash.Weighted>
6.6456

> <Gold.Chemscore.DEInternal.Weighted>
1.5658

> <Gold.Chemscore.Rot.Weighted>
4.1713

> <Gold.Chemscore.Internal.Correction.Weighted>
   9.000000E+99

> <Gold.Reference.RMSD>
3.9105

