#       Name:                example_1
#       Creating user name   hitesit
#       Creation time:       Mon Nov  6 23:22:46 2023


#       File generated by GOLD software.
#

@<TRIPOS>MOLECULE
example_1|example_1_prep|mol2|1|dock2
    55    58     1
SMALL
NO_CHARGES


@<TRIPOS>ATOM
      1 O1          20.2245 -29.2097  48.7347 O.3            1 RES1               0.0000
      2 C2          20.7017 -29.7433  47.5637 C.ar           1 RES1               0.0000
      3 C3          21.0381 -28.2583  49.4157 C.3            1 RES1               0.0000
      4 C4          19.7364 -30.1102  46.6141 C.ar           1 RES1               0.0000
      5 C5          22.0571 -29.9292  47.2716 C.ar           1 RES1               0.0000
      6 C6          20.1869 -27.5939  50.4829 C.3            1 RES1               0.0000
      7 O7          18.4286 -29.8906  46.9622 O.3            1 RES1               0.0000
      8 C8          20.1539 -30.6641  45.4024 C.ar           1 RES1               0.0000
      9 C9          22.4843 -30.4754  46.0683 C.ar           1 RES1               0.0000
     10 C10         17.4310 -30.1222  45.9785 C.3            1 RES1               0.0000
     11 C11         21.5310 -30.8618  45.1204 C.ar           1 RES1               0.0000
     12 N12         23.7978 -30.6034  45.8673 N.ar           1 RES1               0.0000
     13 C13         22.0450 -31.4195  43.9343 C.ar           1 RES1               0.0000
     14 C14         24.1922 -31.1218  44.6963 C.ar           1 RES1               0.0000
     15 N15         23.3673 -31.5197  43.7181 N.ar           1 RES1               0.0000
     16 N16         21.1792 -31.8427  42.9290 N.pl3          1 RES1               0.0000
     17 C17         25.6634 -31.2232  44.4438 C.3            1 RES1               0.0000
     18 C18         21.5917 -32.8422  41.9535 C.3            1 RES1               0.0000
     19 C19         21.6736 -34.1972  42.6434 C.ar           1 RES1               0.0000
     20 C20         20.6042 -32.8039  40.7816 C.3            1 RES1               0.0000
     21 C21         20.5856 -34.7689  43.3312 C.ar           1 RES1               0.0000
     22 C22         22.8948 -34.8852  42.6424 C.ar           1 RES1               0.0000
     23 C23         20.6892 -36.0107  43.9830 C.ar           1 RES1               0.0000
     24 C24         23.0189 -36.1143  43.2840 C.ar           1 RES1               0.0000
     25 C25         19.5495 -36.5977  44.6915 C.2            1 RES1               0.0000
     26 C26         21.9241 -36.6725  43.9457 C.ar           1 RES1               0.0000
     27 C27         18.2395 -36.5053  44.4511 C.2            1 RES1               0.0000
     28 C28         19.6403 -37.4747  45.8907 C.3            1 RES1               0.0000
     29 N29         17.4740 -37.2045  45.3438 N.2            1 RES1               0.0000
     30 N30         18.2155 -37.7765  46.1893 N.2            1 RES1               0.0000
     31 H1          21.8860 -28.7609  49.8788 H              1 RES1               0.0000
     32 H2          21.3997 -27.5100  48.7121 H              1 RES1               0.0000
     33 H3          22.8008 -29.6364  48.0112 H              1 RES1               0.0000
     34 H4          20.7857 -26.8600  51.0201 H              1 RES1               0.0000
     35 H5          19.8253 -28.3481  51.1804 H              1 RES1               0.0000
     36 H6          19.3389 -27.0971  50.0136 H              1 RES1               0.0000
     37 H7          19.4098 -30.9494  44.6602 H              1 RES1               0.0000
     38 H8          16.4498 -29.9067  46.3988 H              1 RES1               0.0000
     39 H9          17.4691 -31.1631  45.6609 H              1 RES1               0.0000
     40 H10         17.6090 -29.4744  45.1214 H              1 RES1               0.0000
     41 H11         20.2456 -31.4481  42.8752 H              1 RES1               0.0000
     42 H12         25.8338 -31.6596  43.4608 H              1 RES1               0.0000
     43 H13         26.1197 -31.8542  45.2051 H              1 RES1               0.0000
     44 H14         26.1075 -30.2297  44.4818 H              1 RES1               0.0000
     45 H15         22.5816 -32.5797  41.5833 H              1 RES1               0.0000
     46 H16         20.6014 -31.8077  40.3416 H              1 RES1               0.0000
     47 H17         19.6048 -33.0447  41.1411 H              1 RES1               0.0000
     48 H18         20.9047 -33.5320  40.0297 H              1 RES1               0.0000
     49 H19         19.6373 -34.2341  43.3591 H              1 RES1               0.0000
     50 H20         23.7559 -34.4536  42.1341 H              1 RES1               0.0000
     51 H21         23.9718 -36.6413  43.2697 H              1 RES1               0.0000
     52 H22         22.0310 -37.6368  44.4404 H              1 RES1               0.0000
     53 H23         17.8216 -35.9302  43.6261 H              1 RES1               0.0000
     54 H24         20.1132 -36.9540  46.7221 H              1 RES1               0.0000
     55 H25         20.1956 -38.3850  45.6693 H              1 RES1               0.0000
@<TRIPOS>BOND
    1    1    2 1     
    2    1    3 1     
    3    2    4 ar    
    4    2    5 ar    
    5    3    6 1     
    6    4    7 1     
    7    4    8 ar    
    8    5    9 ar    
    9    7   10 1     
   10    8   11 ar    
   11    9   12 ar    
   12   11   13 ar    
   13   12   14 ar    
   14   13   15 ar    
   15   13   16 1     
   16   14   17 1     
   17   16   18 1     
   18   18   19 1     
   19   18   20 1     
   20   19   21 ar    
   21   19   22 ar    
   22   21   23 ar    
   23   22   24 ar    
   24   23   25 1     
   25   23   26 ar    
   26   25   27 2     
   27   25   28 1     
   28   27   29 1     
   29   28   30 1     
   30    9   11 ar    
   31   14   15 ar    
   32   24   26 ar    
   33   29   30 2     
   34    3   31 1     
   35    3   32 1     
   36    5   33 1     
   37    6   34 1     
   38    6   35 1     
   39    6   36 1     
   40    8   37 1     
   41   10   38 1     
   42   10   39 1     
   43   10   40 1     
   44   16   41 1     
   45   17   42 1     
   46   17   43 1     
   47   17   44 1     
   48   18   45 1     
   49   20   46 1     
   50   20   47 1     
   51   20   48 1     
   52   21   49 1     
   53   22   50 1     
   54   24   51 1     
   55   26   52 1     
   56   27   53 1     
   57   28   54 1     
   58   28   55 1     
@<TRIPOS>SUBSTRUCTURE
      1 RES1           1
@<TRIPOS>SET
DONOR_HYDROGENS      STATIC     ATOMS    <user>   **** ""
1 41
ATOM$RED        STATIC     ATOMS    COLORGROUP SYSTEM
1 41
@<TRIPOS>COMMENT
> <Gold.Version>
2022.3.0

> <Gold.Id.Protein>
unknown|5ovf_clean|pdb

> <Gold.Protein.ActiveResidues>
 ILE839  VAL852  ILE856  LEU859  VAL871  LEU872  GLU873  VAL874  VAL875  SER876 
 ALA877  MET878  ASN879  SER880  SER881  PRO882  VAL883  TYR884  ARG885  LEU886 
 ASP887  HIS888  THR889  PHE890  GLU891  GLN892  ILE893  PRO894  SER895  ARG896 
 GLN897  LYS898  LYS899  ILE900  LEU901  GLU902  GLU903  ALA904  HIS905  GLU906 
 LEU907  SER908  GLU909  LYS914  GLU836  ILE839  VAL852  ILE855  ILE856  LEU859 
 GLN863  VAL871  LEU872  VAL874  VAL875  SER876  ALA877  MET878  ASN879  SER880 
 SER881  PRO882  VAL883  TYR884  ARG885  LEU886  ASP887  HIS888  THR889  PHE890 
 GLU891  GLN892  ILE893  PRO894  SER895  ARG896  GLN897  LYS898  LYS899  ILE900 
 LEU901  GLU902  GLU903  ALA904  HIS905  GLU906  LEU907  SER908  GLU909  ASP910 
 LYS914 

> <Gold.Score>
     Fitness  S(hb_ext) S(vdw_ext)  S(hb_int)    S(int)      intcor
     76.91       1.29      56.59       0.00      -2.19      -9.25

> <Gold.Goldscore.Fitness>
76.9146

> <Gold.Goldscore.Internal.Vdw>
-6.1013

> <Gold.Goldscore.Internal.Torsion>
-5.3415

> <Gold.Goldscore.External.Vdw>
56.5909

> <Gold.Goldscore.Internal.HBond>
0.0000

> <Gold.Goldscore.External.HBond>
1.2901

> <Gold.Goldscore.Internal.Correction>
-9.2548

> <Gold.Goldscore.Reference.RMSD>
2.2357

> <Gold.Goldscore.Hbonds>
donor molecule, donor type, donor heavy atom, donor atom, acceptor molecule, acceptor atom, score
      L1  H    16    41       P1  2553  0.65

> <Gold.Goldscore.Internal.Vdw.Weighted>
-6.1013

> <Gold.Goldscore.Internal.Torsion.Weighted>
-5.3415

> <Gold.Goldscore.External.Vdw.Weighted>
77.8125

> <Gold.Goldscore.Internal.HBond.Weighted>
0.0000

> <Gold.Goldscore.External.HBond.Weighted>
1.2901

> <Gold.Goldscore.Internal.Correction.Weighted>
-9.2548

> <Gold.Rescore>
     Score         DG    S(hbond)    S(metal)    S(lipo)     H(rot)  DE(clash)    DE(int)     intcor
     28.72     -33.23       1.00        0.00     244.29       1.63       3.61       0.90       ----

> <Gold.Chemscore.Fitness>
28.7243

> <Gold.Chemscore.DG>
-33.2293

> <Gold.Chemscore.ZeroCoef>
-5.4800

> <Gold.Chemscore.Hbond>
0.9995

> <Gold.Chemscore.Metal>
0.0000

> <Gold.Chemscore.Lipo>
244.2925

> <Gold.Chemscore.Internal_Hbond>
0.0000

> <Gold.Chemscore.DEClash>
3.6095

> <Gold.Chemscore.DEInternal>
0.8954

> <Gold.Chemscore.Rot>
1.6294

> <Gold.Chemscore.Internal.Correction>
   9.000000E+99

> <Gold.Chemscore.Reference.RMSD>
0.0000

> <Gold.Chemscore.Hbonds>
donor molecule, donor type, donor heavy atom, donor atom, acceptor molecule, acceptor atom, score
      L1  H    16    41       P1  2553  0.79

> <Gold.Chemscore.Hbond.Weighted>
-3.3383

> <Gold.Chemscore.Metal.Weighted>
-0.0000

> <Gold.Chemscore.Lipo.Weighted>
-28.5822

> <Gold.Chemscore.Internal_Hbond.Weighted>
0.0000

> <Gold.Chemscore.DEClash.Weighted>
3.6095

> <Gold.Chemscore.DEInternal.Weighted>
0.8954

> <Gold.Chemscore.Rot.Weighted>
4.1713

> <Gold.Chemscore.Internal.Correction.Weighted>
   9.000000E+99

> <Gold.Reference.RMSD>
2.2357

