#       Name:                example_1
#       Creating user name   hitesit
#       Creation time:       Mon Nov  6 23:23:24 2023


#       File generated by GOLD software.
#

@<TRIPOS>MOLECULE
example_1|example_1_prep|mol2|1|dock7
    55    58     1
SMALL
NO_CHARGES


@<TRIPOS>ATOM
      1 O1          20.3644 -27.5919  47.9098 O.3            1 RES1               0.0000
      2 C2          20.8045 -28.5250  47.0044 C.ar           1 RES1               0.0000
      3 C3          21.2361 -26.5118  48.2330 C.3            1 RES1               0.0000
      4 C4          19.8155 -29.1423  46.2242 C.ar           1 RES1               0.0000
      5 C5          22.1453 -28.8781  46.8183 C.ar           1 RES1               0.0000
      6 C6          20.4189 -25.4485  48.9447 C.3            1 RES1               0.0000
      7 O7          18.5244 -28.7409  46.4521 O.3            1 RES1               0.0000
      8 C8          20.1945 -30.1050  45.2867 C.ar           1 RES1               0.0000
      9 C9          22.5345 -29.8313  45.8862 C.ar           1 RES1               0.0000
     10 C10         17.4855 -29.4210  45.7632 C.3            1 RES1               0.0000
     11 C11         21.5562 -30.4670  45.1145 C.ar           1 RES1               0.0000
     12 N12         23.8372 -30.0963  45.7647 N.ar           1 RES1               0.0000
     13 C13         22.0315 -31.4300  44.2041 C.ar           1 RES1               0.0000
     14 C14         24.1956 -31.0103  44.8528 C.ar           1 RES1               0.0000
     15 N15         23.3447 -31.6747  44.0588 N.ar           1 RES1               0.0000
     16 N16         21.1382 -32.1250  43.3928 N.pl3          1 RES1               0.0000
     17 C17         25.6571 -31.2772  44.6765 C.3            1 RES1               0.0000
     18 C18         21.6127 -32.9901  42.3216 C.3            1 RES1               0.0000
     19 C19         21.7554 -34.4068  42.8613 C.ar           1 RES1               0.0000
     20 C20         20.6384 -32.8724  41.1439 C.3            1 RES1               0.0000
     21 C21         20.7493 -35.0389  43.6174 C.ar           1 RES1               0.0000
     22 C22         22.9564 -35.0963  42.6448 C.ar           1 RES1               0.0000
     23 C23         20.9108 -36.3394  44.1278 C.ar           1 RES1               0.0000
     24 C24         23.1372 -36.3832  43.1439 C.ar           1 RES1               0.0000
     25 C25         19.8556 -36.9886  44.9091 C.2            1 RES1               0.0000
     26 C26         22.1215 -36.9994  43.8763 C.ar           1 RES1               0.0000
     27 C27         18.5287 -36.8526  44.8535 C.2            1 RES1               0.0000
     28 C28         20.0753 -37.9978  45.9810 C.3            1 RES1               0.0000
     29 N29         17.8650 -37.6391  45.7550 N.2            1 RES1               0.0000
     30 N30         18.6928 -38.3133  46.4275 N.2            1 RES1               0.0000
     31 H1          22.0342 -26.8631  48.8853 H              1 RES1               0.0000
     32 H2          21.6669 -26.0990  47.3221 H              1 RES1               0.0000
     33 H3          22.9079 -28.3902  47.4234 H              1 RES1               0.0000
     34 H4          21.0624 -24.6091  49.2038 H              1 RES1               0.0000
     35 H5          19.9876 -25.8690  49.8520 H              1 RES1               0.0000
     36 H6          19.6204 -25.1048  48.2887 H              1 RES1               0.0000
     37 H7          19.4319 -30.5868  44.6766 H              1 RES1               0.0000
     38 H8          16.5237 -28.9943  46.0441 H              1 RES1               0.0000
     39 H9          17.5051 -30.4772  46.0279 H              1 RES1               0.0000
     40 H10         17.6307 -29.3132  44.6894 H              1 RES1               0.0000
     41 H11         20.1404 -32.0271  43.5505 H              1 RES1               0.0000
     42 H12         25.7974 -32.0365  43.9085 H              1 RES1               0.0000
     43 H13         26.0776 -31.6301  45.6169 H              1 RES1               0.0000
     44 H14         26.1600 -30.3594  44.3756 H              1 RES1               0.0000
     45 H15         22.5923 -32.6399  41.9994 H              1 RES1               0.0000
     46 H16         20.5900 -31.8354  40.8149 H              1 RES1               0.0000
     47 H17         19.6485 -33.2003  41.4576 H              1 RES1               0.0000
     48 H18         20.9846 -33.4980  40.3226 H              1 RES1               0.0000
     49 H19         19.8200 -34.5056  43.8123 H              1 RES1               0.0000
     50 H20         23.7567 -34.6203  42.0800 H              1 RES1               0.0000
     51 H21         24.0729 -36.9101  42.9626 H              1 RES1               0.0000
     52 H22         22.2718 -38.0081  44.2582 H              1 RES1               0.0000
     53 H23         18.0245 -36.1819  44.1593 H              1 RES1               0.0000
     54 H24         20.6650 -37.5814  46.7964 H              1 RES1               0.0000
     55 H25         20.5723 -38.8839  45.5890 H              1 RES1               0.0000
@<TRIPOS>BOND
    1    1    2 1     
    2    1    3 1     
    3    2    4 ar    
    4    2    5 ar    
    5    3    6 1     
    6    4    7 1     
    7    4    8 ar    
    8    5    9 ar    
    9    7   10 1     
   10    8   11 ar    
   11    9   12 ar    
   12   11   13 ar    
   13   12   14 ar    
   14   13   15 ar    
   15   13   16 1     
   16   14   17 1     
   17   16   18 1     
   18   18   19 1     
   19   18   20 1     
   20   19   21 ar    
   21   19   22 ar    
   22   21   23 ar    
   23   22   24 ar    
   24   23   25 1     
   25   23   26 ar    
   26   25   27 2     
   27   25   28 1     
   28   27   29 1     
   29   28   30 1     
   30    9   11 ar    
   31   14   15 ar    
   32   24   26 ar    
   33   29   30 2     
   34    3   31 1     
   35    3   32 1     
   36    5   33 1     
   37    6   34 1     
   38    6   35 1     
   39    6   36 1     
   40    8   37 1     
   41   10   38 1     
   42   10   39 1     
   43   10   40 1     
   44   16   41 1     
   45   17   42 1     
   46   17   43 1     
   47   17   44 1     
   48   18   45 1     
   49   20   46 1     
   50   20   47 1     
   51   20   48 1     
   52   21   49 1     
   53   22   50 1     
   54   24   51 1     
   55   26   52 1     
   56   27   53 1     
   57   28   54 1     
   58   28   55 1     
@<TRIPOS>SUBSTRUCTURE
      1 RES1           1
@<TRIPOS>SET
DONOR_HYDROGENS      STATIC     ATOMS    <user>   **** ""
1 41
ATOM$RED        STATIC     ATOMS    COLORGROUP SYSTEM
1 41
@<TRIPOS>COMMENT
> <Gold.Version>
2022.3.0

> <Gold.Id.Protein>
unknown|5ovf_clean|pdb

> <Gold.Protein.ActiveResidues>
 ILE839  VAL852  ILE856  LEU859  VAL871  LEU872  GLU873  VAL874  VAL875  SER876 
 ALA877  MET878  ASN879  SER880  SER881  PRO882  VAL883  TYR884  ARG885  LEU886 
 ASP887  HIS888  THR889  PHE890  GLU891  GLN892  ILE893  PRO894  SER895  ARG896 
 GLN897  LYS898  LYS899  ILE900  LEU901  GLU902  GLU903  ALA904  HIS905  GLU906 
 LEU907  SER908  GLU909  LYS914  GLU836  ILE839  VAL852  ILE855  ILE856  LEU859 
 GLN863  VAL871  LEU872  VAL874  VAL875  SER876  ALA877  MET878  ASN879  SER880 
 SER881  PRO882  VAL883  TYR884  ARG885  LEU886  ASP887  HIS888  THR889  PHE890 
 GLU891  GLN892  ILE893  PRO894  SER895  ARG896  GLN897  LYS898  LYS899  ILE900 
 LEU901  GLU902  GLU903  ALA904  HIS905  GLU906  LEU907  SER908  GLU909  ASP910 
 LYS914 

> <Gold.Score>
     Fitness  S(hb_ext) S(vdw_ext)  S(hb_int)    S(int)      intcor
     69.51       0.33      53.96       0.00      -5.02      -8.15

> <Gold.Goldscore.Fitness>
69.5069

> <Gold.Goldscore.Internal.Vdw>
-8.8206

> <Gold.Goldscore.Internal.Torsion>
-4.3537

> <Gold.Goldscore.External.Vdw>
53.9603

> <Gold.Goldscore.Internal.HBond>
0.0000

> <Gold.Goldscore.External.HBond>
0.3348

> <Gold.Goldscore.Internal.Correction>
-8.1511

> <Gold.Goldscore.Reference.RMSD>
2.0916

> <Gold.Goldscore.Hbonds>
donor molecule, donor type, donor heavy atom, donor atom, acceptor molecule, acceptor atom, score
      L1  H    16    41       P1  2553  0.17

> <Gold.Goldscore.Internal.Vdw.Weighted>
-8.8206

> <Gold.Goldscore.Internal.Torsion.Weighted>
-4.3537

> <Gold.Goldscore.External.Vdw.Weighted>
74.1954

> <Gold.Goldscore.Internal.HBond.Weighted>
0.0000

> <Gold.Goldscore.External.HBond.Weighted>
0.3348

> <Gold.Goldscore.Internal.Correction.Weighted>
-8.1511

> <Gold.Rescore>
     Score         DG    S(hbond)    S(metal)    S(lipo)     H(rot)  DE(clash)    DE(int)     intcor
     24.64     -29.47       0.41        0.00     229.04       1.63       3.47       1.36       ----

> <Gold.Chemscore.Fitness>
24.6372

> <Gold.Chemscore.DG>
-29.4679

> <Gold.Chemscore.ZeroCoef>
-5.4800

> <Gold.Chemscore.Hbond>
0.4077

> <Gold.Chemscore.Metal>
0.0000

> <Gold.Chemscore.Lipo>
229.0381

> <Gold.Chemscore.Internal_Hbond>
0.0000

> <Gold.Chemscore.DEClash>
3.4715

> <Gold.Chemscore.DEInternal>
1.3592

> <Gold.Chemscore.Rot>
1.6294

> <Gold.Chemscore.Internal.Correction>
   9.000000E+99

> <Gold.Chemscore.Reference.RMSD>
0.0000

> <Gold.Chemscore.Hbonds>
donor molecule, donor type, donor heavy atom, donor atom, acceptor molecule, acceptor atom, score
      L1  H    16    41       P1  2553  0.72

> <Gold.Chemscore.Hbond.Weighted>
-1.3618

> <Gold.Chemscore.Metal.Weighted>
-0.0000

> <Gold.Chemscore.Lipo.Weighted>
-26.7975

> <Gold.Chemscore.Internal_Hbond.Weighted>
0.0000

> <Gold.Chemscore.DEClash.Weighted>
3.4715

> <Gold.Chemscore.DEInternal.Weighted>
1.3592

> <Gold.Chemscore.Rot.Weighted>
4.1713

> <Gold.Chemscore.Internal.Correction.Weighted>
   9.000000E+99

> <Gold.Reference.RMSD>
2.0916

