#       Name:                example_1
#       Creating user name   hitesit
#       Creation time:       Mon Nov  6 23:23:08 2023


#       File generated by GOLD software.
#

@<TRIPOS>MOLECULE
example_1|example_1_prep|mol2|1|dock5
    55    58     1
SMALL
NO_CHARGES


@<TRIPOS>ATOM
      1 O1          19.4078 -29.1190  48.7413 O.3            1 RES1               0.0000
      2 C2          20.0272 -29.6931  47.6594 C.ar           1 RES1               0.0000
      3 C3          20.1669 -28.9546  49.9361 C.3            1 RES1               0.0000
      4 C4          19.1899 -30.0804  46.6025 C.ar           1 RES1               0.0000
      5 C5          21.4067 -29.9006  47.5536 C.ar           1 RES1               0.0000
      6 C6          19.2206 -28.4982  51.0321 C.3            1 RES1               0.0000
      7 O7          17.8508 -29.8379  46.7690 O.3            1 RES1               0.0000
      8 C8          19.7552 -30.6755  45.4730 C.ar           1 RES1               0.0000
      9 C9          21.9805 -30.4879  46.4335 C.ar           1 RES1               0.0000
     10 C10         16.9760 -30.1783  45.7035 C.3            1 RES1               0.0000
     11 C11         21.1546 -30.8948  45.3805 C.ar           1 RES1               0.0000
     12 N12         23.3072 -30.6344  46.4108 N.ar           1 RES1               0.0000
     13 C13         21.8122 -31.4938  44.2892 C.ar           1 RES1               0.0000
     14 C14         23.8448 -31.1926  45.3176 C.ar           1 RES1               0.0000
     15 N15         23.1500 -31.6130  44.2517 N.ar           1 RES1               0.0000
     16 N16         21.0800 -31.9399  43.1918 N.pl3          1 RES1               0.0000
     17 C17         25.3349 -31.3155  45.2638 C.3            1 RES1               0.0000
     18 C18         21.6743 -32.8288  42.2031 C.3            1 RES1               0.0000
     19 C19         21.7398 -34.2351  42.7834 C.ar           1 RES1               0.0000
     20 C20         20.8510 -32.7298  40.9138 C.3            1 RES1               0.0000
     21 C21         20.6747 -34.8136  43.5006 C.ar           1 RES1               0.0000
     22 C22         22.9258 -34.9697  42.6468 C.ar           1 RES1               0.0000
     23 C23         20.7644 -36.1052  44.0498 C.ar           1 RES1               0.0000
     24 C24         23.0358 -36.2485  43.1855 C.ar           1 RES1               0.0000
     25 C25         19.6484 -36.6984  44.7900 C.2            1 RES1               0.0000
     26 C26         21.9629 -36.8114  43.8782 C.ar           1 RES1               0.0000
     27 C27         18.3322 -36.6227  44.5798 C.2            1 RES1               0.0000
     28 C28         19.7773 -37.5638  45.9942 C.3            1 RES1               0.0000
     29 N29         17.5958 -37.3225  45.4962 N.2            1 RES1               0.0000
     30 N30         18.3635 -37.8788  46.3289 N.2            1 RES1               0.0000
     31 H1          20.6269 -29.9014  50.2152 H              1 RES1               0.0000
     32 H2          20.9423 -28.2059  49.7816 H              1 RES1               0.0000
     33 H3          22.0508 -29.5919  48.3755 H              1 RES1               0.0000
     34 H4          19.7763 -28.3645  51.9590 H              1 RES1               0.0000
     35 H5          18.4456 -29.2492  51.1785 H              1 RES1               0.0000
     36 H6          18.7611 -27.5536  50.7448 H              1 RES1               0.0000
     37 H7          19.1110 -30.9768  44.6483 H              1 RES1               0.0000
     38 H8          15.9526 -29.9295  45.9804 H              1 RES1               0.0000
     39 H9          17.0481 -31.2460  45.5017 H              1 RES1               0.0000
     40 H10         17.2565 -29.6205  44.8112 H              1 RES1               0.0000
     41 H11         20.1167 -31.6407  43.0792 H              1 RES1               0.0000
     42 H12         25.6268 -31.7838  44.3250 H              1 RES1               0.0000
     43 H13         25.6790 -31.9267  46.0968 H              1 RES1               0.0000
     44 H14         25.7834 -30.3255  45.3304 H              1 RES1               0.0000
     45 H15         22.6883 -32.4903  41.9955 H              1 RES1               0.0000
     46 H16         20.8507 -31.6994  40.5614 H              1 RES1               0.0000
     47 H17         19.8278 -33.0461  41.1113 H              1 RES1               0.0000
     48 H18         21.2894 -33.3736  40.1527 H              1 RES1               0.0000
     49 H19         19.7556 -34.2448  43.6335 H              1 RES1               0.0000
     50 H20         23.7702 -34.5353  42.1137 H              1 RES1               0.0000
     51 H21         23.9608 -36.8108  43.0663 H              1 RES1               0.0000
     52 H22         22.0582 -37.8144  44.2915 H              1 RES1               0.0000
     53 H23         17.8886 -36.0596  43.7600 H              1 RES1               0.0000
     54 H24         20.2637 -37.0306  46.8097 H              1 RES1               0.0000
     55 H25         20.3375 -38.4698  45.7676 H              1 RES1               0.0000
@<TRIPOS>BOND
    1    1    2 1     
    2    1    3 1     
    3    2    4 ar    
    4    2    5 ar    
    5    3    6 1     
    6    4    7 1     
    7    4    8 ar    
    8    5    9 ar    
    9    7   10 1     
   10    8   11 ar    
   11    9   12 ar    
   12   11   13 ar    
   13   12   14 ar    
   14   13   15 ar    
   15   13   16 1     
   16   14   17 1     
   17   16   18 1     
   18   18   19 1     
   19   18   20 1     
   20   19   21 ar    
   21   19   22 ar    
   22   21   23 ar    
   23   22   24 ar    
   24   23   25 1     
   25   23   26 ar    
   26   25   27 2     
   27   25   28 1     
   28   27   29 1     
   29   28   30 1     
   30    9   11 ar    
   31   14   15 ar    
   32   24   26 ar    
   33   29   30 2     
   34    3   31 1     
   35    3   32 1     
   36    5   33 1     
   37    6   34 1     
   38    6   35 1     
   39    6   36 1     
   40    8   37 1     
   41   10   38 1     
   42   10   39 1     
   43   10   40 1     
   44   16   41 1     
   45   17   42 1     
   46   17   43 1     
   47   17   44 1     
   48   18   45 1     
   49   20   46 1     
   50   20   47 1     
   51   20   48 1     
   52   21   49 1     
   53   22   50 1     
   54   24   51 1     
   55   26   52 1     
   56   27   53 1     
   57   28   54 1     
   58   28   55 1     
@<TRIPOS>SUBSTRUCTURE
      1 RES1           1
@<TRIPOS>SET
DONOR_HYDROGENS      STATIC     ATOMS    <user>   **** ""
1 41
ATOM$RED        STATIC     ATOMS    COLORGROUP SYSTEM
1 41
@<TRIPOS>COMMENT
> <Gold.Version>
2022.3.0

> <Gold.Id.Protein>
unknown|5ovf_clean|pdb

> <Gold.Protein.ActiveResidues>
 ILE839  VAL852  ILE856  LEU859  VAL871  LEU872  GLU873  VAL874  VAL875  SER876 
 ALA877  MET878  ASN879  SER880  SER881  PRO882  VAL883  TYR884  ARG885  LEU886 
 ASP887  HIS888  THR889  PHE890  GLU891  GLN892  ILE893  PRO894  SER895  ARG896 
 GLN897  LYS898  LYS899  ILE900  LEU901  GLU902  GLU903  ALA904  HIS905  GLU906 
 LEU907  SER908  GLU909  LYS914  GLU836  ILE839  VAL852  ILE855  ILE856  LEU859 
 GLN863  VAL871  LEU872  VAL874  VAL875  SER876  ALA877  MET878  ASN879  SER880 
 SER881  PRO882  VAL883  TYR884  ARG885  LEU886  ASP887  HIS888  THR889  PHE890 
 GLU891  GLN892  ILE893  PRO894  SER895  ARG896  GLN897  LYS898  LYS899  ILE900 
 LEU901  GLU902  GLU903  ALA904  HIS905  GLU906  LEU907  SER908  GLU909  ASP910 
 LYS914 

> <Gold.Score>
     Fitness  S(hb_ext) S(vdw_ext)  S(hb_int)    S(int)      intcor
     72.80       1.68      55.16       0.00      -4.73      -8.15

> <Gold.Goldscore.Fitness>
72.8023

> <Gold.Goldscore.Internal.Vdw>
-8.2641

> <Gold.Goldscore.Internal.Torsion>
-4.6193

> <Gold.Goldscore.External.Vdw>
55.1643

> <Gold.Goldscore.Internal.HBond>
0.0000

> <Gold.Goldscore.External.HBond>
1.6837

> <Gold.Goldscore.Internal.Correction>
-8.1511

> <Gold.Goldscore.Reference.RMSD>
2.2735

> <Gold.Goldscore.Hbonds>
donor molecule, donor type, donor heavy atom, donor atom, acceptor molecule, acceptor atom, score
      L1  H    16    41       P1  2553  0.84

> <Gold.Goldscore.Internal.Vdw.Weighted>
-8.2641

> <Gold.Goldscore.Internal.Torsion.Weighted>
-4.6193

> <Gold.Goldscore.External.Vdw.Weighted>
75.8509

> <Gold.Goldscore.Internal.HBond.Weighted>
0.0000

> <Gold.Goldscore.External.HBond.Weighted>
1.6837

> <Gold.Goldscore.Internal.Correction.Weighted>
-8.1511

> <Gold.Rescore>
     Score         DG    S(hbond)    S(metal)    S(lipo)     H(rot)  DE(clash)    DE(int)     intcor
     30.27     -33.64       0.99        0.00     248.12       1.63       1.91       1.46       ----

> <Gold.Chemscore.Fitness>
30.2715

> <Gold.Chemscore.DG>
-33.6426

> <Gold.Chemscore.ZeroCoef>
-5.4800

> <Gold.Chemscore.Hbond>
0.9893

> <Gold.Chemscore.Metal>
0.0000

> <Gold.Chemscore.Lipo>
248.1179

> <Gold.Chemscore.Internal_Hbond>
0.0000

> <Gold.Chemscore.DEClash>
1.9100

> <Gold.Chemscore.DEInternal>
1.4611

> <Gold.Chemscore.Rot>
1.6294

> <Gold.Chemscore.Internal.Correction>
   9.000000E+99

> <Gold.Chemscore.Reference.RMSD>
0.0000

> <Gold.Chemscore.Hbonds>
donor molecule, donor type, donor heavy atom, donor atom, acceptor molecule, acceptor atom, score
      L1  H    16    41       P1  2553  0.69

> <Gold.Chemscore.Hbond.Weighted>
-3.3042

> <Gold.Chemscore.Metal.Weighted>
-0.0000

> <Gold.Chemscore.Lipo.Weighted>
-29.0298

> <Gold.Chemscore.Internal_Hbond.Weighted>
0.0000

> <Gold.Chemscore.DEClash.Weighted>
1.9100

> <Gold.Chemscore.DEInternal.Weighted>
1.4611

> <Gold.Chemscore.Rot.Weighted>
4.1713

> <Gold.Chemscore.Internal.Correction.Weighted>
   9.000000E+99

> <Gold.Reference.RMSD>
2.2735

