#       Name:                example_1
#       Creating user name   hitesit
#       Creation time:       Mon Nov  6 23:23:01 2023


#       File generated by GOLD software.
#

@<TRIPOS>MOLECULE
example_1|example_1_prep|mol2|1|dock4
    55    58     1
SMALL
NO_CHARGES


@<TRIPOS>ATOM
      1 O1          20.0158 -29.5727  48.6604 O.3            1 RES1               0.0000
      2 C2          20.5572 -30.0110  47.4778 C.ar           1 RES1               0.0000
      3 C3          20.7897 -28.6823  49.4599 C.3            1 RES1               0.0000
      4 C4          19.6460 -30.2966  46.4501 C.ar           1 RES1               0.0000
      5 C5          21.9269 -30.1771  47.2464 C.ar           1 RES1               0.0000
      6 C6          19.8798 -28.1023  50.5279 C.3            1 RES1               0.0000
      7 O7          18.3208 -30.1016  46.7426 O.3            1 RES1               0.0000
      8 C8          20.1300 -30.7516  45.2221 C.ar           1 RES1               0.0000
      9 C9          22.4201 -30.6252  46.0279 C.ar           1 RES1               0.0000
     10 C10         17.3795 -30.2437  45.6889 C.3            1 RES1               0.0000
     11 C11         21.5208 -30.9304  45.0009 C.ar           1 RES1               0.0000
     12 N12         23.7428 -30.7409  45.8895 N.ar           1 RES1               0.0000
     13 C13         22.0998 -31.3917  43.8034 C.ar           1 RES1               0.0000
     14 C14         24.2016 -31.1639  44.7037 C.ar           1 RES1               0.0000
     15 N15         23.4321 -31.4784  43.6526 N.ar           1 RES1               0.0000
     16 N16         21.2910 -31.7291  42.7211 N.pl3          1 RES1               0.0000
     17 C17         25.6845 -31.2492  44.5248 C.3            1 RES1               0.0000
     18 C18         21.6483 -32.8225  41.8281 C.3            1 RES1               0.0000
     19 C19         21.0844 -34.1203  42.3905 C.ar           1 RES1               0.0000
     20 C20         21.1341 -32.4820  40.4246 C.3            1 RES1               0.0000
     21 C21         21.8925 -35.1044  42.9923 C.ar           1 RES1               0.0000
     22 C22         19.7123 -34.3755  42.2600 C.ar           1 RES1               0.0000
     23 C23         21.3551 -36.3076  43.4836 C.ar           1 RES1               0.0000
     24 C24         19.1613 -35.5614  42.7371 C.ar           1 RES1               0.0000
     25 C25         22.2047 -37.3220  44.1117 C.2            1 RES1               0.0000
     26 C26         19.9761 -36.5171  43.3460 C.ar           1 RES1               0.0000
     27 C27         21.8807 -38.3914  44.8423 C.2            1 RES1               0.0000
     28 C28         23.6911 -37.3618  44.0443 C.3            1 RES1               0.0000
     29 N29         22.9663 -39.1119  45.2596 N.2            1 RES1               0.0000
     30 N30         24.0266 -38.5736  44.8377 N.2            1 RES1               0.0000
     31 H1          21.6106 -29.2239  49.9276 H              1 RES1               0.0000
     32 H2          21.1897 -27.8814  48.8400 H              1 RES1               0.0000
     33 H3          22.6285 -29.9477  48.0469 H              1 RES1               0.0000
     34 H4          20.4474 -27.4163  51.1549 H              1 RES1               0.0000
     35 H5          19.4801 -28.9085  51.1413 H              1 RES1               0.0000
     36 H6          19.0593 -27.5660  50.0536 H              1 RES1               0.0000
     37 H7          19.4281 -30.9734  44.4196 H              1 RES1               0.0000
     38 H8          16.3764 -30.0604  46.0710 H              1 RES1               0.0000
     39 H9          17.4355 -31.2538  45.2859 H              1 RES1               0.0000
     40 H10         17.6048 -29.5258  44.9017 H              1 RES1               0.0000
     41 H11         20.4387 -31.2045  42.5520 H              1 RES1               0.0000
     42 H12         25.9091 -31.6050  43.5204 H              1 RES1               0.0000
     43 H13         26.0991 -31.9414  45.2563 H              1 RES1               0.0000
     44 H14         26.1247 -30.2635  44.6676 H              1 RES1               0.0000
     45 H15         22.7338 -32.9015  41.7915 H              1 RES1               0.0000
     46 H16         21.5796 -31.5456  40.0920 H              1 RES1               0.0000
     47 H17         20.0503 -32.3795  40.4501 H              1 RES1               0.0000
     48 H18         21.4072 -33.2791  39.7347 H              1 RES1               0.0000
     49 H19         22.9637 -34.9287  43.0797 H              1 RES1               0.0000
     50 H20         19.0705 -33.6381  41.7801 H              1 RES1               0.0000
     51 H21         18.0925 -35.7439  42.6351 H              1 RES1               0.0000
     52 H22         19.5338 -37.4393  43.7199 H              1 RES1               0.0000
     53 H23         20.8538 -38.6632  45.0825 H              1 RES1               0.0000
     54 H24         24.1276 -36.4688  44.4893 H              1 RES1               0.0000
     55 H25         24.0343 -37.4597  43.0154 H              1 RES1               0.0000
@<TRIPOS>BOND
    1    1    2 1     
    2    1    3 1     
    3    2    4 ar    
    4    2    5 ar    
    5    3    6 1     
    6    4    7 1     
    7    4    8 ar    
    8    5    9 ar    
    9    7   10 1     
   10    8   11 ar    
   11    9   12 ar    
   12   11   13 ar    
   13   12   14 ar    
   14   13   15 ar    
   15   13   16 1     
   16   14   17 1     
   17   16   18 1     
   18   18   19 1     
   19   18   20 1     
   20   19   21 ar    
   21   19   22 ar    
   22   21   23 ar    
   23   22   24 ar    
   24   23   25 1     
   25   23   26 ar    
   26   25   27 2     
   27   25   28 1     
   28   27   29 1     
   29   28   30 1     
   30    9   11 ar    
   31   14   15 ar    
   32   24   26 ar    
   33   29   30 2     
   34    3   31 1     
   35    3   32 1     
   36    5   33 1     
   37    6   34 1     
   38    6   35 1     
   39    6   36 1     
   40    8   37 1     
   41   10   38 1     
   42   10   39 1     
   43   10   40 1     
   44   16   41 1     
   45   17   42 1     
   46   17   43 1     
   47   17   44 1     
   48   18   45 1     
   49   20   46 1     
   50   20   47 1     
   51   20   48 1     
   52   21   49 1     
   53   22   50 1     
   54   24   51 1     
   55   26   52 1     
   56   27   53 1     
   57   28   54 1     
   58   28   55 1     
@<TRIPOS>SUBSTRUCTURE
      1 RES1           1
@<TRIPOS>SET
DONOR_HYDROGENS      STATIC     ATOMS    <user>   **** ""
1 41
ATOM$RED        STATIC     ATOMS    COLORGROUP SYSTEM
1 41
@<TRIPOS>COMMENT
> <Gold.Version>
2022.3.0

> <Gold.Id.Protein>
unknown|5ovf_clean|pdb

> <Gold.Protein.ActiveResidues>
 ILE839  VAL852  ILE856  LEU859  VAL871  LEU872  GLU873  VAL874  VAL875  SER876 
 ALA877  MET878  ASN879  SER880  SER881  PRO882  VAL883  TYR884  ARG885  LEU886 
 ASP887  HIS888  THR889  PHE890  GLU891  GLN892  ILE893  PRO894  SER895  ARG896 
 GLN897  LYS898  LYS899  ILE900  LEU901  GLU902  GLU903  ALA904  HIS905  GLU906 
 LEU907  SER908  GLU909  LYS914  GLU836  ILE839  VAL852  ILE855  ILE856  LEU859 
 GLN863  VAL871  LEU872  VAL874  VAL875  SER876  ALA877  MET878  ASN879  SER880 
 SER881  PRO882  VAL883  TYR884  ARG885  LEU886  ASP887  HIS888  THR889  PHE890 
 GLU891  GLN892  ILE893  PRO894  SER895  ARG896  GLN897  LYS898  LYS899  ILE900 
 LEU901  GLU902  GLU903  ALA904  HIS905  GLU906  LEU907  SER908  GLU909  ASP910 
 LYS914 

> <Gold.Score>
     Fitness  S(hb_ext) S(vdw_ext)  S(hb_int)    S(int)      intcor
     77.68       0.47      58.95       0.00      -3.84      -8.84

> <Gold.Goldscore.Fitness>
77.6830

> <Gold.Goldscore.Internal.Vdw>
-7.5606

> <Gold.Goldscore.Internal.Torsion>
-5.1173

> <Gold.Goldscore.External.Vdw>
58.9494

> <Gold.Goldscore.Internal.HBond>
0.0000

> <Gold.Goldscore.External.HBond>
0.4673

> <Gold.Goldscore.Internal.Correction>
-8.8381

> <Gold.Goldscore.Reference.RMSD>
0.6994

> <Gold.Goldscore.Hbonds>
donor molecule, donor type, donor heavy atom, donor atom, acceptor molecule, acceptor atom, score
      L1  H    16    41       P1  2553  0.23

> <Gold.Goldscore.Internal.Vdw.Weighted>
-7.5606

> <Gold.Goldscore.Internal.Torsion.Weighted>
-5.1173

> <Gold.Goldscore.External.Vdw.Weighted>
81.0554

> <Gold.Goldscore.Internal.HBond.Weighted>
0.0000

> <Gold.Goldscore.External.HBond.Weighted>
0.4673

> <Gold.Goldscore.Internal.Correction.Weighted>
-8.8381

> <Gold.Rescore>
     Score         DG    S(hbond)    S(metal)    S(lipo)     H(rot)  DE(clash)    DE(int)     intcor
     32.73     -34.85       0.89        0.00     261.11       1.63       0.64       1.48       ----

> <Gold.Chemscore.Fitness>
32.7300

> <Gold.Chemscore.DG>
-34.8477

> <Gold.Chemscore.ZeroCoef>
-5.4800

> <Gold.Chemscore.Hbond>
0.8948

> <Gold.Chemscore.Metal>
0.0000

> <Gold.Chemscore.Lipo>
261.1140

> <Gold.Chemscore.Internal_Hbond>
0.0000

> <Gold.Chemscore.DEClash>
0.6391

> <Gold.Chemscore.DEInternal>
1.4786

> <Gold.Chemscore.Rot>
1.6294

> <Gold.Chemscore.Internal.Correction>
   9.000000E+99

> <Gold.Chemscore.Reference.RMSD>
0.0000

> <Gold.Chemscore.Hbonds>
donor molecule, donor type, donor heavy atom, donor atom, acceptor molecule, acceptor atom, score
      L1  H    16    41       P1  2553  0.51

> <Gold.Chemscore.Hbond.Weighted>
-2.9887

> <Gold.Chemscore.Metal.Weighted>
-0.0000

> <Gold.Chemscore.Lipo.Weighted>
-30.5503

> <Gold.Chemscore.Internal_Hbond.Weighted>
0.0000

> <Gold.Chemscore.DEClash.Weighted>
0.6391

> <Gold.Chemscore.DEInternal.Weighted>
1.4786

> <Gold.Chemscore.Rot.Weighted>
4.1713

> <Gold.Chemscore.Internal.Correction.Weighted>
   9.000000E+99

> <Gold.Reference.RMSD>
0.6994

