#       Name:                example_1
#       Creating user name   hitesit
#       Creation time:       Mon Nov  6 23:23:42 2023


#       File generated by GOLD software.
#

@<TRIPOS>MOLECULE
example_1|example_1_prep|mol2|1|dock10
    55    58     1
SMALL
NO_CHARGES


@<TRIPOS>ATOM
      1 O1          19.9347 -29.5377  48.6178 O.3            1 RES1               0.0000
      2 C2          20.4888 -29.9797  47.4425 C.ar           1 RES1               0.0000
      3 C3          20.7366 -29.5877  49.7948 C.3            1 RES1               0.0000
      4 C4          19.5871 -30.2943  46.4148 C.ar           1 RES1               0.0000
      5 C5          21.8623 -30.1226  47.2181 C.ar           1 RES1               0.0000
      6 C6          19.8311 -29.3414  50.9882 C.3            1 RES1               0.0000
      7 O7          18.2574 -30.1209  46.7002 O.3            1 RES1               0.0000
      8 C8          20.0844 -30.7546  45.1941 C.ar           1 RES1               0.0000
      9 C9          22.3686 -30.5757  46.0068 C.ar           1 RES1               0.0000
     10 C10         17.3227 -30.2976  45.6458 C.3            1 RES1               0.0000
     11 C11         21.4791 -30.9098  44.9802 C.ar           1 RES1               0.0000
     12 N12         23.6937 -30.6681  45.8746 N.ar           1 RES1               0.0000
     13 C13         22.0713 -31.3742  43.7904 C.ar           1 RES1               0.0000
     14 C14         24.1650 -31.0963  44.6956 C.ar           1 RES1               0.0000
     15 N15         23.4056 -31.4375  43.6455 N.ar           1 RES1               0.0000
     16 N16         21.2733 -31.7393  42.7092 N.pl3          1 RES1               0.0000
     17 C17         25.6499 -31.1559  44.5233 C.3            1 RES1               0.0000
     18 C18         21.6516 -32.8399  41.8338 C.3            1 RES1               0.0000
     19 C19         21.1205 -34.1402  42.4219 C.ar           1 RES1               0.0000
     20 C20         21.1232 -32.5364  40.4271 C.3            1 RES1               0.0000
     21 C21         21.9594 -35.1164  42.9935 C.ar           1 RES1               0.0000
     22 C22         19.7462 -34.4059  42.3472 C.ar           1 RES1               0.0000
     23 C23         21.4513 -36.3221  43.5092 C.ar           1 RES1               0.0000
     24 C24         19.2237 -35.5945  42.8493 C.ar           1 RES1               0.0000
     25 C25         22.3329 -37.3283  44.1055 C.2            1 RES1               0.0000
     26 C26         20.0695 -36.5422  43.4277 C.ar           1 RES1               0.0000
     27 C27         23.6510 -37.5044  43.9868 C.2            1 RES1               0.0000
     28 C28         21.9002 -38.4150  45.0261 C.3            1 RES1               0.0000
     29 N29         24.1228 -38.5676  44.7070 N.2            1 RES1               0.0000
     30 N30         23.1719 -39.1273  45.3189 N.2            1 RES1               0.0000
     31 H1          21.2051 -30.5669  49.8818 H              1 RES1               0.0000
     32 H2          21.5069 -28.8193  49.7503 H              1 RES1               0.0000
     33 H3          22.5563 -29.8707  48.0185 H              1 RES1               0.0000
     34 H4          20.4200 -29.3743  51.9036 H              1 RES1               0.0000
     35 H5          19.0609 -30.1105  51.0243 H              1 RES1               0.0000
     36 H6          19.3628 -28.3629  50.8928 H              1 RES1               0.0000
     37 H7          19.3899 -30.9989  44.3916 H              1 RES1               0.0000
     38 H8          16.3148 -30.1282  46.0219 H              1 RES1               0.0000
     39 H9          17.3998 -31.3125  45.2587 H              1 RES1               0.0000
     40 H10         17.5366 -29.5876  44.8482 H              1 RES1               0.0000
     41 H11         20.4140 -31.2302  42.5283 H              1 RES1               0.0000
     42 H12         25.8851 -31.5192  43.5240 H              1 RES1               0.0000
     43 H13         26.0745 -31.8315  45.2644 H              1 RES1               0.0000
     44 H14         26.0710 -30.1605  44.6561 H              1 RES1               0.0000
     45 H15         22.7385 -32.8946  41.7931 H              1 RES1               0.0000
     46 H16         21.5453 -31.5961  40.0757 H              1 RES1               0.0000
     47 H17         20.0373 -32.4585  40.4562 H              1 RES1               0.0000
     48 H18         21.4114 -33.3391  39.7500 H              1 RES1               0.0000
     49 H19         23.0319 -34.9325  43.0373 H              1 RES1               0.0000
     50 H20         19.0802 -33.6748  41.8914 H              1 RES1               0.0000
     51 H21         18.1532 -35.7852  42.7908 H              1 RES1               0.0000
     52 H22         19.6494 -37.4665  43.8215 H              1 RES1               0.0000
     53 H23         24.2875 -36.8649  43.3769 H              1 RES1               0.0000
     54 H24         21.1831 -39.0763  44.5419 H              1 RES1               0.0000
     55 H25         21.4613 -38.0068  45.9353 H              1 RES1               0.0000
@<TRIPOS>BOND
    1    1    2 1     
    2    1    3 1     
    3    2    4 ar    
    4    2    5 ar    
    5    3    6 1     
    6    4    7 1     
    7    4    8 ar    
    8    5    9 ar    
    9    7   10 1     
   10    8   11 ar    
   11    9   12 ar    
   12   11   13 ar    
   13   12   14 ar    
   14   13   15 ar    
   15   13   16 1     
   16   14   17 1     
   17   16   18 1     
   18   18   19 1     
   19   18   20 1     
   20   19   21 ar    
   21   19   22 ar    
   22   21   23 ar    
   23   22   24 ar    
   24   23   25 1     
   25   23   26 ar    
   26   25   27 2     
   27   25   28 1     
   28   27   29 1     
   29   28   30 1     
   30    9   11 ar    
   31   14   15 ar    
   32   24   26 ar    
   33   29   30 2     
   34    3   31 1     
   35    3   32 1     
   36    5   33 1     
   37    6   34 1     
   38    6   35 1     
   39    6   36 1     
   40    8   37 1     
   41   10   38 1     
   42   10   39 1     
   43   10   40 1     
   44   16   41 1     
   45   17   42 1     
   46   17   43 1     
   47   17   44 1     
   48   18   45 1     
   49   20   46 1     
   50   20   47 1     
   51   20   48 1     
   52   21   49 1     
   53   22   50 1     
   54   24   51 1     
   55   26   52 1     
   56   27   53 1     
   57   28   54 1     
   58   28   55 1     
@<TRIPOS>SUBSTRUCTURE
      1 RES1           1
@<TRIPOS>SET
DONOR_HYDROGENS      STATIC     ATOMS    <user>   **** ""
1 41
ATOM$RED        STATIC     ATOMS    COLORGROUP SYSTEM
1 41
@<TRIPOS>COMMENT
> <Gold.Version>
2022.3.0

> <Gold.Id.Protein>
unknown|5ovf_clean|pdb

> <Gold.Protein.ActiveResidues>
 ILE839  VAL852  ILE856  LEU859  VAL871  LEU872  GLU873  VAL874  VAL875  SER876 
 ALA877  MET878  ASN879  SER880  SER881  PRO882  VAL883  TYR884  ARG885  LEU886 
 ASP887  HIS888  THR889  PHE890  GLU891  GLN892  ILE893  PRO894  SER895  ARG896 
 GLN897  LYS898  LYS899  ILE900  LEU901  GLU902  GLU903  ALA904  HIS905  GLU906 
 LEU907  SER908  GLU909  LYS914  GLU836  ILE839  VAL852  ILE855  ILE856  LEU859 
 GLN863  VAL871  LEU872  VAL874  VAL875  SER876  ALA877  MET878  ASN879  SER880 
 SER881  PRO882  VAL883  TYR884  ARG885  LEU886  ASP887  HIS888  THR889  PHE890 
 GLU891  GLN892  ILE893  PRO894  SER895  ARG896  GLN897  LYS898  LYS899  ILE900 
 LEU901  GLU902  GLU903  ALA904  HIS905  GLU906  LEU907  SER908  GLU909  ASP910 
 LYS914 

> <Gold.Score>
     Fitness  S(hb_ext) S(vdw_ext)  S(hb_int)    S(int)      intcor
     75.99       0.48      57.92       0.00      -4.12      -8.15

> <Gold.Goldscore.Fitness>
75.9940

> <Gold.Goldscore.Internal.Vdw>
-7.1855

> <Gold.Goldscore.Internal.Torsion>
-5.0902

> <Gold.Goldscore.External.Vdw>
57.9196

> <Gold.Goldscore.Internal.HBond>
0.0000

> <Gold.Goldscore.External.HBond>
0.4791

> <Gold.Goldscore.Internal.Correction>
-8.1511

> <Gold.Goldscore.Reference.RMSD>
0.7825

> <Gold.Goldscore.Hbonds>
donor molecule, donor type, donor heavy atom, donor atom, acceptor molecule, acceptor atom, score
      L1  H    16    41       P1  2553  0.24

> <Gold.Goldscore.Internal.Vdw.Weighted>
-7.1855

> <Gold.Goldscore.Internal.Torsion.Weighted>
-5.0902

> <Gold.Goldscore.External.Vdw.Weighted>
79.6395

> <Gold.Goldscore.Internal.HBond.Weighted>
0.0000

> <Gold.Goldscore.External.HBond.Weighted>
0.4791

> <Gold.Goldscore.Internal.Correction.Weighted>
-8.1511

> <Gold.Rescore>
     Score         DG    S(hbond)    S(metal)    S(lipo)     H(rot)  DE(clash)    DE(int)     intcor
     32.24     -34.29       0.73        0.00     260.88       1.63       0.74       1.31       ----

> <Gold.Chemscore.Fitness>
32.2400

> <Gold.Chemscore.DG>
-34.2851

> <Gold.Chemscore.ZeroCoef>
-5.4800

> <Gold.Chemscore.Hbond>
0.7347

> <Gold.Chemscore.Metal>
0.0000

> <Gold.Chemscore.Lipo>
260.8754

> <Gold.Chemscore.Internal_Hbond>
0.0000

> <Gold.Chemscore.DEClash>
0.7395

> <Gold.Chemscore.DEInternal>
1.3055

> <Gold.Chemscore.Rot>
1.6294

> <Gold.Chemscore.Internal.Correction>
   9.000000E+99

> <Gold.Chemscore.Reference.RMSD>
0.0000

> <Gold.Chemscore.Hbonds>
donor molecule, donor type, donor heavy atom, donor atom, acceptor molecule, acceptor atom, score
      L1  H    16    41       P1  2553  0.55

> <Gold.Chemscore.Hbond.Weighted>
-2.4540

> <Gold.Chemscore.Metal.Weighted>
-0.0000

> <Gold.Chemscore.Lipo.Weighted>
-30.5224

> <Gold.Chemscore.Internal_Hbond.Weighted>
0.0000

> <Gold.Chemscore.DEClash.Weighted>
0.7395

> <Gold.Chemscore.DEInternal.Weighted>
1.3055

> <Gold.Chemscore.Rot.Weighted>
4.1713

> <Gold.Chemscore.Internal.Correction.Weighted>
   9.000000E+99

> <Gold.Reference.RMSD>
0.7825

