#       Name:                example_1
#       Creating user name   hitesit
#       Creation time:       Mon Nov  6 23:23:16 2023


#       File generated by GOLD software.
#

@<TRIPOS>MOLECULE
example_1|example_1_prep|mol2|1|dock6
    55    58     1
SMALL
NO_CHARGES


@<TRIPOS>ATOM
      1 O1          19.9466 -29.3489  48.5881 O.3            1 RES1               0.0000
      2 C2          20.5067 -29.8327  47.4322 C.ar           1 RES1               0.0000
      3 C3          20.6671 -29.5263  49.8047 C.3            1 RES1               0.0000
      4 C4          19.6117 -30.1603  46.4027 C.ar           1 RES1               0.0000
      5 C5          21.8800 -30.0052  47.2286 C.ar           1 RES1               0.0000
      6 C6          19.7037 -29.2992  50.9559 C.3            1 RES1               0.0000
      7 O7          18.2820 -29.9564  46.6670 O.3            1 RES1               0.0000
      8 C8          20.1152 -30.6627  45.2013 C.ar           1 RES1               0.0000
      9 C9          22.3925 -30.5003  46.0365 C.ar           1 RES1               0.0000
     10 C10         17.3472 -30.2515  45.6395 C.3            1 RES1               0.0000
     11 C11         21.5094 -30.8475  45.0087 C.ar           1 RES1               0.0000
     12 N12         23.7173 -30.6188  45.9231 N.ar           1 RES1               0.0000
     13 C13         22.1074 -31.3548  43.8395 C.ar           1 RES1               0.0000
     14 C14         24.1948 -31.0875  44.7621 C.ar           1 RES1               0.0000
     15 N15         23.4420 -31.4448  43.7126 N.ar           1 RES1               0.0000
     16 N16         21.3158 -31.7361  42.7591 N.pl3          1 RES1               0.0000
     17 C17         25.6804 -31.1772  44.6096 C.3            1 RES1               0.0000
     18 C18         21.7109 -32.8350  41.8889 C.3            1 RES1               0.0000
     19 C19         21.1938 -34.1397  42.4798 C.ar           1 RES1               0.0000
     20 C20         21.1838 -32.5430  40.4793 C.3            1 RES1               0.0000
     21 C21         22.0411 -35.0969  43.0709 C.ar           1 RES1               0.0000
     22 C22         19.8255 -34.4297  42.3876 C.ar           1 RES1               0.0000
     23 C23         21.5463 -36.3072  43.5889 C.ar           1 RES1               0.0000
     24 C24         19.3163 -35.6232  42.8917 C.ar           1 RES1               0.0000
     25 C25         22.4365 -37.2934  44.2056 C.2            1 RES1               0.0000
     26 C26         20.1698 -36.5517  43.4895 C.ar           1 RES1               0.0000
     27 C27         22.1566 -38.3776  44.9325 C.2            1 RES1               0.0000
     28 C28         23.9229 -37.2788  44.1278 C.3            1 RES1               0.0000
     29 N29         23.2705 -39.0604  45.3383 N.2            1 RES1               0.0000
     30 N30         24.3076 -38.4817  44.9122 N.2            1 RES1               0.0000
     31 H1          21.0688 -30.5374  49.8525 H              1 RES1               0.0000
     32 H2          21.4839 -28.8083  49.8589 H              1 RES1               0.0000
     33 H3          22.5689 -29.7430  48.0301 H              1 RES1               0.0000
     34 H4          20.2299 -29.4290  51.9005 H              1 RES1               0.0000
     35 H5          18.8875 -30.0175  50.8933 H              1 RES1               0.0000
     36 H6          19.3028 -28.2883  50.8997 H              1 RES1               0.0000
     37 H7          19.4260 -30.9173  44.3975 H              1 RES1               0.0000
     38 H8          16.3393 -30.0412  45.9944 H              1 RES1               0.0000
     39 H9          17.4247 -31.3036  45.3695 H              1 RES1               0.0000
     40 H10         17.5606 -29.6361  44.7669 H              1 RES1               0.0000
     41 H11         20.4495 -31.2403  42.5751 H              1 RES1               0.0000
     42 H12         25.9209 -31.5720  43.6236 H              1 RES1               0.0000
     43 H13         26.0845 -31.8390  45.3741 H              1 RES1               0.0000
     44 H14         26.1171 -30.1858  44.7200 H              1 RES1               0.0000
     45 H15         22.7985 -32.8763  41.8523 H              1 RES1               0.0000
     46 H16         21.5956 -31.5987  40.1261 H              1 RES1               0.0000
     47 H17         20.0970 -32.4784  40.5043 H              1 RES1               0.0000
     48 H18         21.4844 -33.3444  39.8061 H              1 RES1               0.0000
     49 H19         23.1095 -34.8942  43.1285 H              1 RES1               0.0000
     50 H20         19.1536 -33.7137  41.9167 H              1 RES1               0.0000
     51 H21         18.2501 -35.8328  42.8195 H              1 RES1               0.0000
     52 H22         19.7601 -37.4801  43.8846 H              1 RES1               0.0000
     53 H23         21.1420 -38.6878  45.1782 H              1 RES1               0.0000
     54 H24         24.3298 -36.3729  44.5747 H              1 RES1               0.0000
     55 H25         24.2622 -37.3587  43.0961 H              1 RES1               0.0000
@<TRIPOS>BOND
    1    1    2 1     
    2    1    3 1     
    3    2    4 ar    
    4    2    5 ar    
    5    3    6 1     
    6    4    7 1     
    7    4    8 ar    
    8    5    9 ar    
    9    7   10 1     
   10    8   11 ar    
   11    9   12 ar    
   12   11   13 ar    
   13   12   14 ar    
   14   13   15 ar    
   15   13   16 1     
   16   14   17 1     
   17   16   18 1     
   18   18   19 1     
   19   18   20 1     
   20   19   21 ar    
   21   19   22 ar    
   22   21   23 ar    
   23   22   24 ar    
   24   23   25 1     
   25   23   26 ar    
   26   25   27 2     
   27   25   28 1     
   28   27   29 1     
   29   28   30 1     
   30    9   11 ar    
   31   14   15 ar    
   32   24   26 ar    
   33   29   30 2     
   34    3   31 1     
   35    3   32 1     
   36    5   33 1     
   37    6   34 1     
   38    6   35 1     
   39    6   36 1     
   40    8   37 1     
   41   10   38 1     
   42   10   39 1     
   43   10   40 1     
   44   16   41 1     
   45   17   42 1     
   46   17   43 1     
   47   17   44 1     
   48   18   45 1     
   49   20   46 1     
   50   20   47 1     
   51   20   48 1     
   52   21   49 1     
   53   22   50 1     
   54   24   51 1     
   55   26   52 1     
   56   27   53 1     
   57   28   54 1     
   58   28   55 1     
@<TRIPOS>SUBSTRUCTURE
      1 RES1           1
@<TRIPOS>SET
DONOR_HYDROGENS      STATIC     ATOMS    <user>   **** ""
1 41
ATOM$RED        STATIC     ATOMS    COLORGROUP SYSTEM
1 41
@<TRIPOS>COMMENT
> <Gold.Version>
2022.3.0

> <Gold.Id.Protein>
unknown|5ovf_clean|pdb

> <Gold.Protein.ActiveResidues>
 ILE839  VAL852  ILE856  LEU859  VAL871  LEU872  GLU873  VAL874  VAL875  SER876 
 ALA877  MET878  ASN879  SER880  SER881  PRO882  VAL883  TYR884  ARG885  LEU886 
 ASP887  HIS888  THR889  PHE890  GLU891  GLN892  ILE893  PRO894  SER895  ARG896 
 GLN897  LYS898  LYS899  ILE900  LEU901  GLU902  GLU903  ALA904  HIS905  GLU906 
 LEU907  SER908  GLU909  LYS914  GLU836  ILE839  VAL852  ILE855  ILE856  LEU859 
 GLN863  VAL871  LEU872  VAL874  VAL875  SER876  ALA877  MET878  ASN879  SER880 
 SER881  PRO882  VAL883  TYR884  ARG885  LEU886  ASP887  HIS888  THR889  PHE890 
 GLU891  GLN892  ILE893  PRO894  SER895  ARG896  GLN897  LYS898  LYS899  ILE900 
 LEU901  GLU902  GLU903  ALA904  HIS905  GLU906  LEU907  SER908  GLU909  ASP910 
 LYS914 

> <Gold.Score>
     Fitness  S(hb_ext) S(vdw_ext)  S(hb_int)    S(int)      intcor
     77.31       0.56      58.85       0.00      -4.17      -8.15

> <Gold.Goldscore.Fitness>
77.3107

> <Gold.Goldscore.Internal.Vdw>
-7.4143

> <Gold.Goldscore.Internal.Torsion>
-4.9026

> <Gold.Goldscore.External.Vdw>
58.8455

> <Gold.Goldscore.Internal.HBond>
0.0000

> <Gold.Goldscore.External.HBond>
0.5640

> <Gold.Goldscore.Internal.Correction>
-8.1511

> <Gold.Goldscore.Reference.RMSD>
0.7607

> <Gold.Goldscore.Hbonds>
donor molecule, donor type, donor heavy atom, donor atom, acceptor molecule, acceptor atom, score
      L1  H    16    41       P1  2553  0.28

> <Gold.Goldscore.Internal.Vdw.Weighted>
-7.4143

> <Gold.Goldscore.Internal.Torsion.Weighted>
-4.9026

> <Gold.Goldscore.External.Vdw.Weighted>
80.9125

> <Gold.Goldscore.Internal.HBond.Weighted>
0.0000

> <Gold.Goldscore.External.HBond.Weighted>
0.5640

> <Gold.Goldscore.Internal.Correction.Weighted>
-8.1511

> <Gold.Rescore>
     Score         DG    S(hbond)    S(metal)    S(lipo)     H(rot)  DE(clash)    DE(int)     intcor
     33.34     -35.43       0.89        0.00     266.37       1.63       0.86       1.23       ----

> <Gold.Chemscore.Fitness>
33.3430

> <Gold.Chemscore.DG>
-35.4323

> <Gold.Chemscore.ZeroCoef>
-5.4800

> <Gold.Chemscore.Hbond>
0.8858

> <Gold.Chemscore.Metal>
0.0000

> <Gold.Chemscore.Lipo>
266.3673

> <Gold.Chemscore.Internal_Hbond>
0.0000

> <Gold.Chemscore.DEClash>
0.8643

> <Gold.Chemscore.DEInternal>
1.2250

> <Gold.Chemscore.Rot>
1.6294

> <Gold.Chemscore.Internal.Correction>
   9.000000E+99

> <Gold.Chemscore.Reference.RMSD>
0.0000

> <Gold.Chemscore.Hbonds>
donor molecule, donor type, donor heavy atom, donor atom, acceptor molecule, acceptor atom, score
      L1  H    16    41       P1  2553  0.62

> <Gold.Chemscore.Hbond.Weighted>
-2.9586

> <Gold.Chemscore.Metal.Weighted>
-0.0000

> <Gold.Chemscore.Lipo.Weighted>
-31.1650

> <Gold.Chemscore.Internal_Hbond.Weighted>
0.0000

> <Gold.Chemscore.DEClash.Weighted>
0.8643

> <Gold.Chemscore.DEInternal.Weighted>
1.2250

> <Gold.Chemscore.Rot.Weighted>
4.1713

> <Gold.Chemscore.Internal.Correction.Weighted>
   9.000000E+99

> <Gold.Reference.RMSD>
0.7607

