#       Name:                example_1
#       Creating user name   hitesit
#       Creation time:       Mon Nov  6 23:22:53 2023


#       File generated by GOLD software.
#

@<TRIPOS>MOLECULE
example_1|example_1_prep|mol2|1|dock3
    55    58     1
SMALL
NO_CHARGES


@<TRIPOS>ATOM
      1 O1          19.9678 -27.7618  47.9955 O.3            1 RES1               0.0000
      2 C2          20.4339 -28.6689  47.0769 C.ar           1 RES1               0.0000
      3 C3          20.7291 -27.5631  49.1837 C.3            1 RES1               0.0000
      4 C4          19.4612 -29.3180  46.3021 C.ar           1 RES1               0.0000
      5 C5          21.7854 -28.9672  46.8729 C.ar           1 RES1               0.0000
      6 C6          19.8604 -26.8100  50.1751 C.3            1 RES1               0.0000
      7 O7          18.1580 -28.9698  46.5477 O.3            1 RES1               0.0000
      8 C8          19.8671 -30.2568  45.3517 C.ar           1 RES1               0.0000
      9 C9          22.2012 -29.8962  45.9279 C.ar           1 RES1               0.0000
     10 C10         17.1404 -29.6583  45.8357 C.3            1 RES1               0.0000
     11 C11         21.2400 -30.5633  45.1613 C.ar           1 RES1               0.0000
     12 N12         23.5118 -30.1086  45.7897 N.ar           1 RES1               0.0000
     13 C13         21.7424 -31.4988  44.2369 C.ar           1 RES1               0.0000
     14 C14         23.8955 -30.9998  44.8655 C.ar           1 RES1               0.0000
     15 N15         23.0625 -31.6903  44.0749 N.ar           1 RES1               0.0000
     16 N16         20.8680 -32.2215  43.4291 N.pl3          1 RES1               0.0000
     17 C17         25.3643 -31.2074  44.6707 C.3            1 RES1               0.0000
     18 C18         21.3634 -33.0511  42.3396 C.3            1 RES1               0.0000
     19 C19         21.6847 -34.4364  42.8841 C.ar           1 RES1               0.0000
     20 C20         20.3123 -33.0540  41.2237 C.3            1 RES1               0.0000
     21 C21         20.7945 -35.1586  43.7024 C.ar           1 RES1               0.0000
     22 C22         22.9379 -34.9995  42.6064 C.ar           1 RES1               0.0000
     23 C23         21.1205 -36.4268  44.2155 C.ar           1 RES1               0.0000
     24 C24         23.2810 -36.2523  43.1070 C.ar           1 RES1               0.0000
     25 C25         20.1848 -37.1706  45.0619 C.2            1 RES1               0.0000
     26 C26         22.3782 -36.9600  43.9020 C.ar           1 RES1               0.0000
     27 C27         20.3397 -38.3218  45.7201 C.2            1 RES1               0.0000
     28 C28         18.7914 -36.7534  45.3778 C.3            1 RES1               0.0000
     29 N29         19.2245 -38.7034  46.4145 N.2            1 RES1               0.0000
     30 N30         18.3079 -37.8507  46.2567 N.2            1 RES1               0.0000
     31 H1          21.0191 -28.5256  49.6026 H              1 RES1               0.0000
     32 H2          21.6218 -26.9817  48.9580 H              1 RES1               0.0000
     33 H3          22.5351 -28.4549  47.4740 H              1 RES1               0.0000
     34 H4          20.4193 -26.6442  51.0949 H              1 RES1               0.0000
     35 H5          18.9678 -27.3947  50.3931 H              1 RES1               0.0000
     36 H6          19.5707 -25.8508  49.7485 H              1 RES1               0.0000
     37 H7          19.1172 -30.7629  44.7456 H              1 RES1               0.0000
     38 H8          16.1657 -29.2756  46.1346 H              1 RES1               0.0000
     39 H9          17.1969 -30.7224  46.0600 H              1 RES1               0.0000
     40 H10         17.2783 -29.5049  44.7664 H              1 RES1               0.0000
     41 H11         19.8693 -32.1691  43.6025 H              1 RES1               0.0000
     42 H12         25.5256 -31.9538  43.8944 H              1 RES1               0.0000
     43 H13         25.8091 -31.5515  45.6033 H              1 RES1               0.0000
     44 H14         25.8273 -30.2679  44.3728 H              1 RES1               0.0000
     45 H15         22.2800 -32.6077  41.9534 H              1 RES1               0.0000
     46 H16         20.1368 -32.0332  40.8876 H              1 RES1               0.0000
     47 H17         19.3826 -33.4765  41.6019 H              1 RES1               0.0000
     48 H18         20.6707 -33.6545  40.3890 H              1 RES1               0.0000
     49 H19         19.8264 -34.7227  43.9447 H              1 RES1               0.0000
     50 H20         23.6508 -34.4511  41.9924 H              1 RES1               0.0000
     51 H21         24.2555 -36.6810  42.8779 H              1 RES1               0.0000
     52 H22         22.6552 -37.9413  44.2846 H              1 RES1               0.0000
     53 H23         21.2626 -38.8998  45.7057 H              1 RES1               0.0000
     54 H24         18.1892 -36.6817  44.4732 H              1 RES1               0.0000
     55 H25         18.7772 -35.7979  45.9001 H              1 RES1               0.0000
@<TRIPOS>BOND
    1    1    2 1     
    2    1    3 1     
    3    2    4 ar    
    4    2    5 ar    
    5    3    6 1     
    6    4    7 1     
    7    4    8 ar    
    8    5    9 ar    
    9    7   10 1     
   10    8   11 ar    
   11    9   12 ar    
   12   11   13 ar    
   13   12   14 ar    
   14   13   15 ar    
   15   13   16 1     
   16   14   17 1     
   17   16   18 1     
   18   18   19 1     
   19   18   20 1     
   20   19   21 ar    
   21   19   22 ar    
   22   21   23 ar    
   23   22   24 ar    
   24   23   25 1     
   25   23   26 ar    
   26   25   27 2     
   27   25   28 1     
   28   27   29 1     
   29   28   30 1     
   30    9   11 ar    
   31   14   15 ar    
   32   24   26 ar    
   33   29   30 2     
   34    3   31 1     
   35    3   32 1     
   36    5   33 1     
   37    6   34 1     
   38    6   35 1     
   39    6   36 1     
   40    8   37 1     
   41   10   38 1     
   42   10   39 1     
   43   10   40 1     
   44   16   41 1     
   45   17   42 1     
   46   17   43 1     
   47   17   44 1     
   48   18   45 1     
   49   20   46 1     
   50   20   47 1     
   51   20   48 1     
   52   21   49 1     
   53   22   50 1     
   54   24   51 1     
   55   26   52 1     
   56   27   53 1     
   57   28   54 1     
   58   28   55 1     
@<TRIPOS>SUBSTRUCTURE
      1 RES1           1
@<TRIPOS>SET
DONOR_HYDROGENS      STATIC     ATOMS    <user>   **** ""
1 41
ATOM$RED        STATIC     ATOMS    COLORGROUP SYSTEM
1 41
@<TRIPOS>COMMENT
> <Gold.Version>
2022.3.0

> <Gold.Id.Protein>
unknown|5ovf_clean|pdb

> <Gold.Protein.ActiveResidues>
 ILE839  VAL852  ILE856  LEU859  VAL871  LEU872  GLU873  VAL874  VAL875  SER876 
 ALA877  MET878  ASN879  SER880  SER881  PRO882  VAL883  TYR884  ARG885  LEU886 
 ASP887  HIS888  THR889  PHE890  GLU891  GLN892  ILE893  PRO894  SER895  ARG896 
 GLN897  LYS898  LYS899  ILE900  LEU901  GLU902  GLU903  ALA904  HIS905  GLU906 
 LEU907  SER908  GLU909  LYS914  GLU836  ILE839  VAL852  ILE855  ILE856  LEU859 
 GLN863  VAL871  LEU872  VAL874  VAL875  SER876  ALA877  MET878  ASN879  SER880 
 SER881  PRO882  VAL883  TYR884  ARG885  LEU886  ASP887  HIS888  THR889  PHE890 
 GLU891  GLN892  ILE893  PRO894  SER895  ARG896  GLN897  LYS898  LYS899  ILE900 
 LEU901  GLU902  GLU903  ALA904  HIS905  GLU906  LEU907  SER908  GLU909  ASP910 
 LYS914 

> <Gold.Score>
     Fitness  S(hb_ext) S(vdw_ext)  S(hb_int)    S(int)      intcor
     68.82       0.11      52.51       0.00      -3.50      -8.84

> <Gold.Goldscore.Fitness>
68.8180

> <Gold.Goldscore.Internal.Vdw>
-9.5476

> <Gold.Goldscore.Internal.Torsion>
-2.7922

> <Gold.Goldscore.External.Vdw>
52.5134

> <Gold.Goldscore.Internal.HBond>
0.0000

> <Gold.Goldscore.External.HBond>
0.1139

> <Gold.Goldscore.Internal.Correction>
-8.8381

> <Gold.Goldscore.Reference.RMSD>
1.9705

> <Gold.Goldscore.Hbonds>
donor molecule, donor type, donor heavy atom, donor atom, acceptor molecule, acceptor atom, score
      L1  H    16    41       P1  2553  0.06

> <Gold.Goldscore.Internal.Vdw.Weighted>
-9.5476

> <Gold.Goldscore.Internal.Torsion.Weighted>
-2.7922

> <Gold.Goldscore.External.Vdw.Weighted>
72.2059

> <Gold.Goldscore.Internal.HBond.Weighted>
0.0000

> <Gold.Goldscore.External.HBond.Weighted>
0.1139

> <Gold.Goldscore.Internal.Correction.Weighted>
-8.8381

> <Gold.Rescore>
     Score         DG    S(hbond)    S(metal)    S(lipo)     H(rot)  DE(clash)    DE(int)     intcor
     25.92     -29.11       0.31        0.00     228.74       1.63       2.18       1.01       ----

> <Gold.Chemscore.Fitness>
25.9182

> <Gold.Chemscore.DG>
-29.1074

> <Gold.Chemscore.ZeroCoef>
-5.4800

> <Gold.Chemscore.Hbond>
0.3103

> <Gold.Chemscore.Metal>
0.0000

> <Gold.Chemscore.Lipo>
228.7383

> <Gold.Chemscore.Internal_Hbond>
0.0000

> <Gold.Chemscore.DEClash>
2.1766

> <Gold.Chemscore.DEInternal>
1.0126

> <Gold.Chemscore.Rot>
1.6294

> <Gold.Chemscore.Internal.Correction>
   9.000000E+99

> <Gold.Chemscore.Reference.RMSD>
0.0000

> <Gold.Chemscore.Hbonds>
donor molecule, donor type, donor heavy atom, donor atom, acceptor molecule, acceptor atom, score
      L1  H    16    41       P1  2553  0.51

> <Gold.Chemscore.Hbond.Weighted>
-1.0363

> <Gold.Chemscore.Metal.Weighted>
-0.0000

> <Gold.Chemscore.Lipo.Weighted>
-26.7624

> <Gold.Chemscore.Internal_Hbond.Weighted>
0.0000

> <Gold.Chemscore.DEClash.Weighted>
2.1766

> <Gold.Chemscore.DEInternal.Weighted>
1.0126

> <Gold.Chemscore.Rot.Weighted>
4.1713

> <Gold.Chemscore.Internal.Correction.Weighted>
   9.000000E+99

> <Gold.Reference.RMSD>
1.9705

