#       Name:                example_1
#       Creating user name   hitesit
#       Creation time:       Mon Nov  6 23:22:39 2023


#       File generated by GOLD software.
#

@<TRIPOS>MOLECULE
example_1|example_1_prep|mol2|1|dock1
    55    58     1
SMALL
NO_CHARGES


@<TRIPOS>ATOM
      1 O1          19.8928 -29.3996  48.5582 O.3            1 RES1               0.0000
      2 C2          20.4569 -29.8810  47.4033 C.ar           1 RES1               0.0000
      3 C3          20.6411 -29.5145  49.7655 C.3            1 RES1               0.0000
      4 C4          19.5644 -30.2231  46.3764 C.ar           1 RES1               0.0000
      5 C5          21.8319 -30.0378  47.1982 C.ar           1 RES1               0.0000
      6 C6          19.6919 -29.2839  50.9276 C.3            1 RES1               0.0000
      7 O7          18.2327 -30.0341  46.6419 O.3            1 RES1               0.0000
      8 C8          20.0721 -30.7239  45.1760 C.ar           1 RES1               0.0000
      9 C9          22.3485 -30.5312  46.0072 C.ar           1 RES1               0.0000
     10 C10         17.3080 -30.2424  45.5845 C.3            1 RES1               0.0000
     11 C11         21.4681 -30.8928  44.9821 C.ar           1 RES1               0.0000
     12 N12         23.6744 -30.6344  45.8922 N.ar           1 RES1               0.0000
     13 C13         22.0703 -31.3972  43.8137 C.ar           1 RES1               0.0000
     14 C14         24.1558 -31.1017  44.7322 C.ar           1 RES1               0.0000
     15 N15         23.4057 -31.4718  43.6852 N.ar           1 RES1               0.0000
     16 N16         21.2818 -31.7920  42.7360 N.pl3          1 RES1               0.0000
     17 C17         25.6421 -31.1742  44.5778 C.3            1 RES1               0.0000
     18 C18         21.7081 -32.8623  41.8452 C.3            1 RES1               0.0000
     19 C19         21.2041 -34.1895  42.3957 C.ar           1 RES1               0.0000
     20 C20         21.1973 -32.5439  40.4353 C.3            1 RES1               0.0000
     21 C21         22.0520 -35.1294  43.0132 C.ar           1 RES1               0.0000
     22 C22         19.8507 -34.5183  42.2376 C.ar           1 RES1               0.0000
     23 C23         21.5708 -36.3606  43.4931 C.ar           1 RES1               0.0000
     24 C24         19.3552 -35.7330  42.7032 C.ar           1 RES1               0.0000
     25 C25         22.4612 -37.3286  44.1377 C.2            1 RES1               0.0000
     26 C26         20.2081 -36.6441  43.3279 C.ar           1 RES1               0.0000
     27 C27         22.1837 -38.3681  44.9281 C.2            1 RES1               0.0000
     28 C28         23.9450 -37.3442  44.0205 C.3            1 RES1               0.0000
     29 N29         23.2970 -39.0481  45.3402 N.2            1 RES1               0.0000
     30 N30         24.3314 -38.5108  44.8571 N.2            1 RES1               0.0000
     31 H1          21.0780 -30.5095  49.8366 H              1 RES1               0.0000
     32 H2          21.4338 -28.7680  49.7817 H              1 RES1               0.0000
     33 H3          22.5188 -29.7645  47.9977 H              1 RES1               0.0000
     34 H4          20.2394 -29.3661  51.8654 H              1 RES1               0.0000
     35 H5          18.8997 -30.0308  50.9030 H              1 RES1               0.0000
     36 H6          19.2556 -28.2892  50.8481 H              1 RES1               0.0000
     37 H7          19.3848 -30.9897  44.3742 H              1 RES1               0.0000
     38 H8          16.2972 -30.0557  45.9442 H              1 RES1               0.0000
     39 H9          17.3841 -31.2702  45.2329 H              1 RES1               0.0000
     40 H10         17.5335 -29.5610  44.7655 H              1 RES1               0.0000
     41 H11         20.3956 -31.3263  42.5686 H              1 RES1               0.0000
     42 H12         25.8859 -31.5698  43.5929 H              1 RES1               0.0000
     43 H13         26.0552 -31.8284  45.3441 H              1 RES1               0.0000
     44 H14         26.0672 -30.1773  44.6839 H              1 RES1               0.0000
     45 H15         22.7967 -32.8850  41.8242 H              1 RES1               0.0000
     46 H16         21.5984 -31.5846  40.1118 H              1 RES1               0.0000
     47 H17         20.1093 -32.4977  40.4452 H              1 RES1               0.0000
     48 H18         21.5212 -33.3234  39.7472 H              1 RES1               0.0000
     49 H19         23.1102 -34.8962  43.1220 H              1 RES1               0.0000
     50 H20         19.1796 -33.8160  41.7453 H              1 RES1               0.0000
     51 H21         18.3001 -35.9728  42.5798 H              1 RES1               0.0000
     52 H22         19.8090 -37.5895  43.6925 H              1 RES1               0.0000
     53 H23         21.1712 -38.6471  45.2162 H              1 RES1               0.0000
     54 H24         24.3785 -36.4234  44.4080 H              1 RES1               0.0000
     55 H25         24.2550 -37.4841  42.9859 H              1 RES1               0.0000
@<TRIPOS>BOND
    1    1    2 1     
    2    1    3 1     
    3    2    4 ar    
    4    2    5 ar    
    5    3    6 1     
    6    4    7 1     
    7    4    8 ar    
    8    5    9 ar    
    9    7   10 1     
   10    8   11 ar    
   11    9   12 ar    
   12   11   13 ar    
   13   12   14 ar    
   14   13   15 ar    
   15   13   16 1     
   16   14   17 1     
   17   16   18 1     
   18   18   19 1     
   19   18   20 1     
   20   19   21 ar    
   21   19   22 ar    
   22   21   23 ar    
   23   22   24 ar    
   24   23   25 1     
   25   23   26 ar    
   26   25   27 2     
   27   25   28 1     
   28   27   29 1     
   29   28   30 1     
   30    9   11 ar    
   31   14   15 ar    
   32   24   26 ar    
   33   29   30 2     
   34    3   31 1     
   35    3   32 1     
   36    5   33 1     
   37    6   34 1     
   38    6   35 1     
   39    6   36 1     
   40    8   37 1     
   41   10   38 1     
   42   10   39 1     
   43   10   40 1     
   44   16   41 1     
   45   17   42 1     
   46   17   43 1     
   47   17   44 1     
   48   18   45 1     
   49   20   46 1     
   50   20   47 1     
   51   20   48 1     
   52   21   49 1     
   53   22   50 1     
   54   24   51 1     
   55   26   52 1     
   56   27   53 1     
   57   28   54 1     
   58   28   55 1     
@<TRIPOS>SUBSTRUCTURE
      1 RES1           1
@<TRIPOS>SET
DONOR_HYDROGENS      STATIC     ATOMS    <user>   **** ""
1 41
ATOM$RED        STATIC     ATOMS    COLORGROUP SYSTEM
1 41
@<TRIPOS>COMMENT
> <Gold.Version>
2022.3.0

> <Gold.Id.Protein>
unknown|5ovf_clean|pdb

> <Gold.Protein.ActiveResidues>
 ILE839  VAL852  ILE856  LEU859  VAL871  LEU872  GLU873  VAL874  VAL875  SER876 
 ALA877  MET878  ASN879  SER880  SER881  PRO882  VAL883  TYR884  ARG885  LEU886 
 ASP887  HIS888  THR889  PHE890  GLU891  GLN892  ILE893  PRO894  SER895  ARG896 
 GLN897  LYS898  LYS899  ILE900  LEU901  GLU902  GLU903  ALA904  HIS905  GLU906 
 LEU907  SER908  GLU909  LYS914  GLU836  ILE839  VAL852  ILE855  ILE856  LEU859 
 GLN863  VAL871  LEU872  VAL874  VAL875  SER876  ALA877  MET878  ASN879  SER880 
 SER881  PRO882  VAL883  TYR884  ARG885  LEU886  ASP887  HIS888  THR889  PHE890 
 GLU891  GLN892  ILE893  PRO894  SER895  ARG896  GLN897  LYS898  LYS899  ILE900 
 LEU901  GLU902  GLU903  ALA904  HIS905  GLU906  LEU907  SER908  GLU909  ASP910 
 LYS914 

> <Gold.Score>
     Fitness  S(hb_ext) S(vdw_ext)  S(hb_int)    S(int)      intcor
     78.61       0.82      59.49       0.00      -4.00      -9.25

> <Gold.Goldscore.Fitness>
78.6130

> <Gold.Goldscore.Internal.Vdw>
-8.3167

> <Gold.Goldscore.Internal.Torsion>
-4.9405

> <Gold.Goldscore.External.Vdw>
59.4886

> <Gold.Goldscore.Internal.HBond>
0.0000

> <Gold.Goldscore.External.HBond>
0.8186

> <Gold.Goldscore.Internal.Correction>
-9.2548

> <Gold.Goldscore.Reference.RMSD>
0.7782

> <Gold.Goldscore.Hbonds>
donor molecule, donor type, donor heavy atom, donor atom, acceptor molecule, acceptor atom, score
      L1  H    16    41       P1  2553  0.41

> <Gold.Goldscore.Internal.Vdw.Weighted>
-8.3167

> <Gold.Goldscore.Internal.Torsion.Weighted>
-4.9405

> <Gold.Goldscore.External.Vdw.Weighted>
81.7968

> <Gold.Goldscore.Internal.HBond.Weighted>
0.0000

> <Gold.Goldscore.External.HBond.Weighted>
0.8186

> <Gold.Goldscore.Internal.Correction.Weighted>
-9.2548

> <Gold.Rescore>
     Score         DG    S(hbond)    S(metal)    S(lipo)     H(rot)  DE(clash)    DE(int)     intcor
     33.12     -34.53       0.95        0.00     256.72       1.63       0.02       1.38       ----

> <Gold.Chemscore.Fitness>
33.1243

> <Gold.Chemscore.DG>
-34.5293

> <Gold.Chemscore.ZeroCoef>
-5.4800

> <Gold.Chemscore.Hbond>
0.9534

> <Gold.Chemscore.Metal>
0.0000

> <Gold.Chemscore.Lipo>
256.7206

> <Gold.Chemscore.Internal_Hbond>
0.0000

> <Gold.Chemscore.DEClash>
0.0223

> <Gold.Chemscore.DEInternal>
1.3828

> <Gold.Chemscore.Rot>
1.6294

> <Gold.Chemscore.Internal.Correction>
   9.000000E+99

> <Gold.Chemscore.Reference.RMSD>
0.0000

> <Gold.Chemscore.Hbonds>
donor molecule, donor type, donor heavy atom, donor atom, acceptor molecule, acceptor atom, score
      L1  H    16    41       P1  2553  0.73

> <Gold.Chemscore.Hbond.Weighted>
-3.1843

> <Gold.Chemscore.Metal.Weighted>
-0.0000

> <Gold.Chemscore.Lipo.Weighted>
-30.0363

> <Gold.Chemscore.Internal_Hbond.Weighted>
0.0000

> <Gold.Chemscore.DEClash.Weighted>
0.0223

> <Gold.Chemscore.DEInternal.Weighted>
1.3828

> <Gold.Chemscore.Rot.Weighted>
4.1713

> <Gold.Chemscore.Internal.Correction.Weighted>
   9.000000E+99

> <Gold.Reference.RMSD>
0.7782

