@<TRIPOS>MOLECULE
A:2SN800
    45    47     1     0     1
SMALL
NO_CHARGES
****
Generated from the CSD

@<TRIPOS>ATOM
     1 N01    117.7880 244.4900 358.4910   N.ar      1 2SN800   0.0000
     2 C02    116.8460 243.8060 359.1770   C.ar      1 2SN800   0.0000
     3 N02    116.7200 242.4540 359.0140   N.pl3     1 2SN800   0.0000
     4 C03    116.0200 244.4900 360.0640   C.ar      1 2SN800   0.0000
     5 C04    116.1440 245.8700 360.2040   C.ar      1 2SN800   0.0000
     6 C05    117.1140 246.5470 359.4660   C.ar      1 2SN800   0.0000
     7 C06    117.2820 247.9260 359.5830   C.ar      1 2SN800   0.0000
     8 C07    118.2600 248.5770 358.8240   C.ar      1 2SN800   0.0000
     9 C08    119.0850 247.8440 357.9690   C.ar      1 2SN800   0.0000
    10 C09    118.9130 246.4730 357.8670   C.ar      1 2SN800   0.0000
    11 C10    117.9360 245.8260 358.6110   C.ar      1 2SN800   0.0000
    12 C11    122.3910 247.8190 357.7500   C.ar      1 2SN800   0.0000
    13 C12    123.5000 246.9780 357.7160   C.ar      1 2SN800   0.0000
    14 C13    124.6120 247.2570 358.5120   C.ar      1 2SN800   0.0000
    15 C14    124.6140 248.3670 359.3520   C.ar      1 2SN800   0.0000
    16 C15    123.5070 249.2140 359.3740   C.ar      1 2SN800   0.0000
    17 C16    122.4040 248.9210 358.5810   C.ar      1 2SN800   0.0000
    18 C21    120.1680 248.5100 357.1430   C.3       1 2SN800   0.0000
    19 N22    121.2910 247.6030 357.0050   N.pl3     1 2SN800   0.0000
    20 C23    123.4850 250.4300 360.2820   C.3       1 2SN800   0.0000
    21 N24    123.3430 251.7530 359.6110   N.3       1 2SN800   0.0000
    22 C25    121.9530 252.0740 359.2260   C.3       1 2SN800   0.0000
    23 C26    124.2410 251.8780 358.4480   C.3       1 2SN800   0.0000
    24 H1     123.4998 246.1025 357.0684   H         1 2SN800   0.0000
    25 H2     125.4822 246.6032 358.4758   H         1 2SN800   0.0000
    26 H3     115.4899 246.4149 360.8831   H         1 2SN800   0.0000
    27 H4     121.3247 252.0911 360.1153   H         1 2SN800   0.0000
    28 H5     121.9261 253.0500 358.7437   H         1 2SN800   0.0000
    29 H6     121.5837 251.3175 358.5352   H         1 2SN800   0.0000
    30 H7     116.6523 248.4958 360.2647   H         1 2SN800   0.0000
    31 H8     121.2484 246.8209 356.3595   H         1 2SN800   0.0000
    32 H9     124.4178 250.4414 360.8438   H         1 2SN800   0.0000
    33 H10    122.6484 250.3154 360.9697   H         1 2SN800   0.0000
    34 H11    115.2780 243.9470 360.6476   H         1 2SN800   0.0000
    35 H12    116.0109 241.9443 359.5314   H         1 2SN800   0.0000
    36 H13    117.3355 241.9602 358.3756   H         1 2SN800   0.0000
    37 H14    120.4957 249.4218 357.6401   H         1 2SN800   0.0000
    38 H15    119.7750 248.7550 356.1574   H         1 2SN800   0.0000
    39 H16    119.5502 245.8977 357.1970   H         1 2SN800   0.0000
    40 H17    121.5329 249.5736 358.6159   H         1 2SN800   0.0000
    41 H18    125.4742 248.5723 359.9875   H         1 2SN800   0.0000
    42 H19    124.0059 251.1005 357.7227   H         1 2SN800   0.0000
    43 H20    124.1058 252.8560 357.9885   H         1 2SN800   0.0000
    44 H21    125.2744 251.7699 358.7740   H         1 2SN800   0.0000
    45 H22    118.3780 249.6569 358.9001   H         1 2SN800   0.0000
@<TRIPOS>BOND
     1     1     2   ar
     2     2     3    1
     3     2     4   ar
     4     4     5   ar
     5     5     6   ar
     6     6     7   ar
     7     7     8   ar
     8     8     9   ar
     9     9    10   ar
    10     1    11   ar
    11     6    11   ar
    12    10    11   ar
    13    12    13   ar
    14    13    14   ar
    15    14    15   ar
    16    15    16   ar
    17    12    17   ar
    18    16    17   ar
    19     9    18    1
    20    12    19    1
    21    18    19    1
    22    16    20    1
    23    20    21    1
    24    21    22    1
    25    21    23    1
    26    13    24    1
    27    14    25    1
    28     5    26    1
    29    22    27    1
    30    22    28    1
    31    22    29    1
    32     7    30    1
    33    19    31    1
    34    20    32    1
    35    20    33    1
    36     4    34    1
    37     3    35    1
    38     3    36    1
    39    18    37    1
    40    18    38    1
    41    10    39    1
    42    17    40    1
    43    15    41    1
    44    23    42    1
    45    23    43    1
    46    23    44    1
    47     8    45    1
@<TRIPOS>SUBSTRUCTURE
     1 2SN800      1 GROUP             0 A     2SN     0  
@<TRIPOS>SET
CCDC_LIGAND STATIC ATOMS
45 1 2 3 4 5 6 7 8 9 \
10 11 12 13 14 15 16 17 18 19 \
20 21 22 23 24 25 26 27 28 29 \
30 31 32 33 34 35 36 37 38 39 \
40 41 42 43 44 45 
