@<TRIPOS>MOLECULE
B:2SN800
    45    47     1     0     1
SMALL
NO_CHARGES
****
Generated from the CSD

@<TRIPOS>ATOM
     1 N01    117.9850 243.9860 324.4990   N.ar      1 2SN800   0.0000
     2 C02    119.1410 243.7440 323.8250   C.ar      1 2SN800   0.0000
     3 N02    119.8170 242.5700 324.0000   N.pl3     1 2SN800   0.0000
     4 C03    119.6480 244.7040 322.9510   C.ar      1 2SN800   0.0000
     5 C04    118.9720 245.9100 322.7740   C.ar      1 2SN800   0.0000
     6 C05    117.7970 246.1270 323.4830   C.ar      1 2SN800   0.0000
     7 C06    117.1050 247.3200 323.3300   C.ar      1 2SN800   0.0000
     8 C07    115.9280 247.5490 324.0370   C.ar      1 2SN800   0.0000
     9 C08    115.4300 246.5690 324.8930   C.ar      1 2SN800   0.0000
    10 C09    116.1240 245.3710 325.0430   C.ar      1 2SN800   0.0000
    11 C10    117.3130 245.1510 324.3460   C.ar      1 2SN800   0.0000
    12 C11    112.4790 245.0960 325.4750   C.ar      1 2SN800   0.0000
    13 C12    111.9780 243.8200 325.7250   C.ar      1 2SN800   0.0000
    14 C13    110.8470 243.3660 325.0480   C.ar      1 2SN800   0.0000
    15 C14    110.2230 244.1870 324.1120   C.ar      1 2SN800   0.0000
    16 C15    110.7220 245.4680 323.8690   C.ar      1 2SN800   0.0000
    17 C16    111.8540 245.9060 324.5450   C.ar      1 2SN800   0.0000
    18 C21    114.1460 246.8170 325.6580   C.3       1 2SN800   0.0000
    19 N22    113.5710 245.5660 326.1100   N.pl3     1 2SN800   0.0000
    20 C23    110.0580 246.3870 322.8620   C.3       1 2SN800   0.0000
    21 N24    109.2640 247.4790 323.4880   N.3       1 2SN800   0.0000
    22 C25    110.0800 248.5780 324.0490   C.3       1 2SN800   0.0000
    23 C26    108.3530 246.9580 324.5240   C.3       1 2SN800   0.0000
    24 H1     110.6746 249.0297 323.2564   H         1 2SN800   0.0000
    25 H2     109.4247 249.3306 324.4850   H         1 2SN800   0.0000
    26 H3     110.7414 248.1827 324.8186   H         1 2SN800   0.0000
    27 H4     109.3932 245.7916 322.2380   H         1 2SN800   0.0000
    28 H5     110.8325 246.8359 322.2419   H         1 2SN800   0.0000
    29 H6     113.9807 245.0560 326.8861   H         1 2SN800   0.0000
    30 H7     108.9329 246.4635 325.3019   H         1 2SN800   0.0000
    31 H8     107.7895 247.7818 324.9595   H         1 2SN800   0.0000
    32 H9     107.6639 246.2439 324.0756   H         1 2SN800   0.0000
    33 H10    119.3574 246.6675 322.0931   H         1 2SN800   0.0000
    34 H11    115.7365 244.6009 325.7084   H         1 2SN800   0.0000
    35 H12    117.4854 248.0825 322.6520   H         1 2SN800   0.0000
    36 H13    120.5715 244.5120 322.4068   H         1 2SN800   0.0000
    37 H14    120.6789 242.4001 323.4917   H         1 2SN800   0.0000
    38 H15    119.4574 241.8676 324.6384   H         1 2SN800   0.0000
    39 H16    109.3478 243.8305 323.5709   H         1 2SN800   0.0000
    40 H17    110.4523 242.3715 325.2507   H         1 2SN800   0.0000
    41 H18    113.4343 247.3236 325.0078   H         1 2SN800   0.0000
    42 H19    114.3597 247.4452 326.5215   H         1 2SN800   0.0000
    43 H20    112.2534 246.8982 324.3401   H         1 2SN800   0.0000
    44 H21    112.4713 243.1756 326.4512   H         1 2SN800   0.0000
    45 H22    115.3972 248.4928 323.9212   H         1 2SN800   0.0000
@<TRIPOS>BOND
     1     1     2   ar
     2     2     3    1
     3     2     4   ar
     4     4     5   ar
     5     5     6   ar
     6     6     7   ar
     7     7     8   ar
     8     8     9   ar
     9     9    10   ar
    10     1    11   ar
    11     6    11   ar
    12    10    11   ar
    13    12    13   ar
    14    13    14   ar
    15    14    15   ar
    16    15    16   ar
    17    12    17   ar
    18    16    17   ar
    19     9    18    1
    20    12    19    1
    21    18    19    1
    22    16    20    1
    23    20    21    1
    24    21    22    1
    25    21    23    1
    26    22    24    1
    27    22    25    1
    28    22    26    1
    29    20    27    1
    30    20    28    1
    31    19    29    1
    32    23    30    1
    33    23    31    1
    34    23    32    1
    35     5    33    1
    36    10    34    1
    37     7    35    1
    38     4    36    1
    39     3    37    1
    40     3    38    1
    41    15    39    1
    42    14    40    1
    43    18    41    1
    44    18    42    1
    45    17    43    1
    46    13    44    1
    47     8    45    1
@<TRIPOS>SUBSTRUCTURE
     1 2SN800      1 GROUP             0 B     2SN     0  
@<TRIPOS>SET
CCDC_LIGAND STATIC ATOMS
45 1 2 3 4 5 6 7 8 9 \
10 11 12 13 14 15 16 17 18 19 \
20 21 22 23 24 25 26 27 28 29 \
30 31 32 33 34 35 36 37 38 39 \
40 41 42 43 44 45 
