#       Name:                CT1002167954
#       Creating user name   hitesit
#       Creation time:       Sun Apr 16 23:04:53 2023


#       File generated by GOLD software.
#

@<TRIPOS>MOLECULE
CT1002167954|ligand_prepared|mol2|1|dock1
    29    30     1
SMALL
NO_CHARGES


@<TRIPOS>ATOM
      1 C1         142.1836 125.3595 189.2302 C.3            1 RES1               0.0000
      2 C2         142.5828 124.0782 188.4702 C.ar           1 RES1               0.0000
      3 C3         142.1054 126.4699 188.1865 C.2            1 RES1               0.0000
      4 C4         140.8555 125.0537 189.9139 C.2            1 RES1               0.0000
      5 C5         143.1963 125.7806 190.3204 C.3            1 RES1               0.0000
      6 C6         143.9108 123.8423 188.1275 C.ar           1 RES1               0.0000
      7 C7         141.6364 123.1234 188.1079 C.ar           1 RES1               0.0000
      8 N8         140.8664 126.9056 187.8191 N.am           1 RES1               0.0000
      9 O9         143.1141 126.9287 187.6648 O.2            1 RES1               0.0000
     10 N10        139.7467 125.7450 189.5011 N.am           1 RES1               0.0000
     11 O11        140.7561 124.2085 190.7948 O.2            1 RES1               0.0000
     12 C12        142.6745 126.8569 191.2592 C.3            1 RES1               0.0000
     13 C13        144.2799 122.6921 187.4499 C.ar           1 RES1               0.0000
     14 C14        142.0077 121.9739 187.4301 C.ar           1 RES1               0.0000
     15 C15        139.6861 126.6351 188.4637 C.2            1 RES1               0.0000
     16 C16        143.3288 121.7571 187.1011 C.ar           1 RES1               0.0000
     17 O17        138.6399 127.1759 188.1170 O.2            1 RES1               0.0000
     18 H18        143.4664 124.8969 190.9116 H              1 RES1               0.0000
     19 H19        144.1073 126.1489 189.8327 H              1 RES1               0.0000
     20 H20        144.6729 124.5680 188.3914 H              1 RES1               0.0000
     21 H21        140.5910 123.2734 188.3554 H              1 RES1               0.0000
     22 H22        140.8124 127.4862 186.9883 H              1 RES1               0.0000
     23 H23        138.8868 125.5810 190.0150 H              1 RES1               0.0000
     24 H24        143.4240 127.1153 192.0043 H              1 RES1               0.0000
     25 H25        142.4197 127.7594 190.7077 H              1 RES1               0.0000
     26 H26        141.7826 126.5148 191.7802 H              1 RES1               0.0000
     27 H27        145.3208 122.5268 187.1921 H              1 RES1               0.0000
     28 H28        141.2557 121.2410 187.1571 H              1 RES1               0.0000
     29 H29        143.6183 120.8559 186.5707 H              1 RES1               0.0000
@<TRIPOS>BOND
    1    1    2 1     
    2    1    3 1     
    3    1    4 1     
    4    1    5 1     
    5    2    6 ar    
    6    2    7 ar    
    7    3    8 1     
    8    3    9 2     
    9    4   10 1     
   10    4   11 2     
   11    5   12 1     
   12    5   18 1     
   13    5   19 1     
   14    6   13 ar    
   15    6   20 1     
   16    7   14 ar    
   17    7   21 1     
   18    8   15 1     
   19    8   22 1     
   20   10   15 1     
   21   10   23 1     
   22   12   24 1     
   23   12   25 1     
   24   12   26 1     
   25   13   16 ar    
   26   13   27 1     
   27   14   16 ar    
   28   14   28 1     
   29   15   17 2     
   30   16   29 1     
@<TRIPOS>SUBSTRUCTURE
      1 RES1           1
@<TRIPOS>SET
DONOR_HYDROGENS      STATIC     ATOMS    <user>   **** ""
2 22 23
ATOM$RED        STATIC     ATOMS    COLORGROUP SYSTEM
2 22 23
@<TRIPOS>COMMENT
> <Gold.Version>
2022.3.0

> <Gold.Id.Protein>
unknown|7rmh_cavity_clean|pdb

> <Gold.Protein.RotatedTorsions>
[ 10338 10331 10329 10326 ] final  -91.10 input   60.01 | X-H torsion
[ 10390 10381 10380 10378 ] final  169.33 input   59.98 | X-H torsion
[ 10359 10350 10349 10347 ] final  153.10 input   59.97 | X-H torsion

> <Gold.Protein.ActiveResidues>
 ARG228  GLU230  ARG232  MET188  LEU190  ALA208  THR114  TYR115  ALA116  TYR117 
 ARG118  GLY119  GLN120 

> <Gold.Protein.RotatedAtoms>
  147.0404  128.1782  186.4208 H   0  0  0  0  0  0  0  0  0  0  0  0  # atno 10338 bound_to 10331
  135.8365  127.8746  179.0077 H   0  0  0  0  0  0  0  0  0  0  0  0  # atno 10359 bound_to 10350
  136.8321  135.4334  179.7592 H   0  0  0  0  0  0  0  0  0  0  0  0  # atno 10390 bound_to 10381
  147.9577  128.6476  185.1617 LP  0  0  0  0  0  0  0  0  0  0  0  0  # atno 14712 bound_to 10331
  147.1791  127.2129  185.1184 LP  0  0  0  0  0  0  0  0  0  0  0  0  # atno 14713 bound_to 10331
  136.6591  135.9951  181.2765 LP  0  0  0  0  0  0  0  0  0  0  0  0  # atno 14720 bound_to 10381
  135.3612  135.8803  180.2923 LP  0  0  0  0  0  0  0  0  0  0  0  0  # atno 14721 bound_to 10381
  136.9207  128.6778  178.0974 LP  0  0  0  0  0  0  0  0  0  0  0  0  # atno 14734 bound_to 10350
  136.1204  129.4520  179.2919 LP  0  0  0  0  0  0  0  0  0  0  0  0  # atno 14735 bound_to 10350

> <Gold.Score>
     Fitness  S(hb_ext) S(vdw_ext)  S(hb_int)    S(int)      intcor
     28.09       2.18      19.52       0.00      -0.92      -0.78

> <Gold.Goldscore.Fitness>
28.0944

> <Gold.Goldscore.Internal.Vdw>
-1.1081

> <Gold.Goldscore.Internal.Torsion>
-0.5934

> <Gold.Goldscore.External.Vdw>
19.5192

> <Gold.Goldscore.Internal.HBond>
0.0000

> <Gold.Goldscore.External.HBond>
2.1750

> <Gold.Goldscore.Internal.Correction>
-0.7819

> <Gold.Goldscore.Hbonds>
donor molecule, donor type, donor heavy atom, donor atom, acceptor molecule, acceptor atom, score
      L1  H     8    22       P1 10342  1.00
      L1  H    10    23       P1 10418  0.09

> <Gold.Goldscore.Internal.Vdw.Weighted>
-1.1081

> <Gold.Goldscore.Internal.Torsion.Weighted>
-0.5934

> <Gold.Goldscore.External.Vdw.Weighted>
26.8390

> <Gold.Goldscore.Internal.HBond.Weighted>
0.0000

> <Gold.Goldscore.External.HBond.Weighted>
2.1750

> <Gold.Goldscore.Internal.Correction.Weighted>
-0.7819

> <Gold.Rescore>
     Score     S(PLP)   S(hbond)     S(cho)   S(metal)  DE(clash)   DE(tors)     intcor
     18.10     -19.55       0.39       0.00       0.00       0.00       1.31       ----

> <Gold.PLP.Fitness>
18.1001

> <Gold.PLP.PLP>
-19.5471

> <Gold.PLP.part.hbond>
-1.0000

> <Gold.PLP.part.metal>
0.0000

> <Gold.PLP.part.buried>
-4.5745

> <Gold.PLP.part.nonpolar>
-16.9618

> <Gold.PLP.part.repulsive>
2.1625

> <Gold.PLP.ligand.clash>
0.0000

> <Gold.PLP.ligand.torsion>
1.3069

> <Gold.PLP.Chemscore.Hbond>
0.3890

> <Gold.PLP.Chemscore.CHOScore>
0.0000

> <Gold.PLP.Chemscore.Metal>
0.0000

> <Gold.Chemscore.Hbonds>
donor molecule, donor type, donor heavy atom, donor atom, acceptor molecule, acceptor atom, score
      L1  H     8    22       P1 10342  0.89
      L1  H    10    23       P1 10418  0.63

> <Gold.PLP.Chemscore.Internal.Correction>
   9.000000E+99

#       Name:                CT1002167954
#       Creating user name   hitesit
#       Creation time:       Sun Apr 16 23:04:55 2023


#       File generated by GOLD software.
#

@<TRIPOS>MOLECULE
CT1002167954|ligand_prepared|mol2|1|dock5
    29    30     1
SMALL
NO_CHARGES


@<TRIPOS>ATOM
      1 C1         142.0150 124.4150 189.4014 C.3            1 RES1               0.0000
      2 C2         142.6030 123.2839 188.5332 C.ar           1 RES1               0.0000
      3 C3         142.6515 125.7103 188.9062 C.2            1 RES1               0.0000
      4 C4         140.5030 124.3538 189.2149 C.2            1 RES1               0.0000
      5 C5         142.3166 124.2651 190.9107 C.3            1 RES1               0.0000
      6 C6         142.1815 121.9685 188.7025 C.ar           1 RES1               0.0000
      7 C7         143.5639 123.5404 187.5588 C.ar           1 RES1               0.0000
      8 N8         141.8741 126.5552 188.1702 N.am           1 RES1               0.0000
      9 O9         143.8289 125.9679 189.1245 O.2            1 RES1               0.0000
     10 N10        139.8895 125.4096 188.5930 N.am           1 RES1               0.0000
     11 O11        139.8395 123.3934 189.5860 O.2            1 RES1               0.0000
     12 C12        141.8193 125.4287 191.7539 C.3            1 RES1               0.0000
     13 C13        142.6996 120.9469 187.9240 C.ar           1 RES1               0.0000
     14 C14        144.0809 122.5172 186.7814 C.ar           1 RES1               0.0000
     15 C15        140.5105 126.4936 188.0347 C.2            1 RES1               0.0000
     16 C16        143.6492 121.2205 186.9628 C.ar           1 RES1               0.0000
     17 O17        139.8949 127.3762 187.4439 O.2            1 RES1               0.0000
     18 H18        141.8502 123.3411 191.2740 H              1 RES1               0.0000
     19 H19        143.4010 124.1691 191.0463 H              1 RES1               0.0000
     20 H20        141.4368 121.7336 189.4556 H              1 RES1               0.0000
     21 H21        143.9192 124.5528 187.3993 H              1 RES1               0.0000
     22 H22        142.3507 127.3019 187.6747 H              1 RES1               0.0000
     23 H23        138.8761 125.3852 188.5415 H              1 RES1               0.0000
     24 H24        142.0566 125.2732 192.8042 H              1 RES1               0.0000
     25 H25        142.2822 126.3608 191.4363 H              1 RES1               0.0000
     26 H26        140.7405 125.5377 191.6627 H              1 RES1               0.0000
     27 H27        142.3576 119.9278 188.0715 H              1 RES1               0.0000
     28 H28        144.8286 122.7371 186.0265 H              1 RES1               0.0000
     29 H29        144.0547 120.4201 186.3527 H              1 RES1               0.0000
@<TRIPOS>BOND
    1    1    2 1     
    2    1    3 1     
    3    1    4 1     
    4    1    5 1     
    5    2    6 ar    
    6    2    7 ar    
    7    3    8 1     
    8    3    9 2     
    9    4   10 1     
   10    4   11 2     
   11    5   12 1     
   12    5   18 1     
   13    5   19 1     
   14    6   13 ar    
   15    6   20 1     
   16    7   14 ar    
   17    7   21 1     
   18    8   15 1     
   19    8   22 1     
   20   10   15 1     
   21   10   23 1     
   22   12   24 1     
   23   12   25 1     
   24   12   26 1     
   25   13   16 ar    
   26   13   27 1     
   27   14   16 ar    
   28   14   28 1     
   29   15   17 2     
   30   16   29 1     
@<TRIPOS>SUBSTRUCTURE
      1 RES1           1
@<TRIPOS>SET
DONOR_HYDROGENS      STATIC     ATOMS    <user>   **** ""
2 22 23
ATOM$RED        STATIC     ATOMS    COLORGROUP SYSTEM
2 22 23
@<TRIPOS>COMMENT
> <Gold.Version>
2022.3.0

> <Gold.Id.Protein>
unknown|7rmh_cavity_clean|pdb

> <Gold.Protein.RotatedTorsions>
[ 10338 10331 10329 10326 ] final   89.63 input   60.01 | X-H torsion
[ 10390 10381 10380 10378 ] final   43.36 input   59.98 | X-H torsion
[ 10359 10350 10349 10347 ] final  176.19 input   59.97 | X-H torsion

> <Gold.Protein.ActiveResidues>
 ARG228  GLU230  ARG232  MET188  LEU190  ALA208  THR114  TYR115  ALA116  TYR117 
 ARG118  GLY119  GLN120 

> <Gold.Protein.RotatedAtoms>
  147.7458  127.8603  184.7163 H   0  0  0  0  0  0  0  0  0  0  0  0  # atno 10338 bound_to 10331
  135.6930  128.1121  179.2598 H   0  0  0  0  0  0  0  0  0  0  0  0  # atno 10359 bound_to 10350
  136.5662  136.0166  181.2990 H   0  0  0  0  0  0  0  0  0  0  0  0  # atno 10390 bound_to 10381
  146.8277  127.3712  185.9674 LP  0  0  0  0  0  0  0  0  0  0  0  0  # atno 14712 bound_to 10331
  147.5985  128.8095  186.0296 LP  0  0  0  0  0  0  0  0  0  0  0  0  # atno 14713 bound_to 10331
  135.3768  135.8460  180.2017 LP  0  0  0  0  0  0  0  0  0  0  0  0  # atno 14720 bound_to 10381
  136.9114  135.4419  179.8163 LP  0  0  0  0  0  0  0  0  0  0  0  0  # atno 14721 bound_to 10381
  136.8050  128.3188  178.0893 LP  0  0  0  0  0  0  0  0  0  0  0  0  # atno 14734 bound_to 10350
  136.3806  129.5719  179.0464 LP  0  0  0  0  0  0  0  0  0  0  0  0  # atno 14735 bound_to 10350

> <Gold.Score>
     Fitness  S(hb_ext) S(vdw_ext)  S(hb_int)    S(int)      intcor
     23.61       0.38      19.67       0.00      -3.81      -0.78

> <Gold.Goldscore.Fitness>
23.6137

> <Gold.Goldscore.Internal.Vdw>
-4.1884

> <Gold.Goldscore.Internal.Torsion>
-0.3941

> <Gold.Goldscore.External.Vdw>
19.6691

> <Gold.Goldscore.Internal.HBond>
0.0000

> <Gold.Goldscore.External.HBond>
0.3759

> <Gold.Goldscore.Internal.Correction>
-0.7752

> <Gold.Goldscore.Hbonds>
donor molecule, donor type, donor heavy atom, donor atom, acceptor molecule, acceptor atom, score
      L1  H    10    23       P1 10418  0.19

> <Gold.Goldscore.Internal.Vdw.Weighted>
-4.1884

> <Gold.Goldscore.Internal.Torsion.Weighted>
-0.3941

> <Gold.Goldscore.External.Vdw.Weighted>
27.0451

> <Gold.Goldscore.Internal.HBond.Weighted>
0.0000

> <Gold.Goldscore.External.HBond.Weighted>
0.3759

> <Gold.Goldscore.Internal.Correction.Weighted>
-0.7752

> <Gold.Rescore>
     Score     S(PLP)   S(hbond)     S(cho)   S(metal)  DE(clash)   DE(tors)     intcor
     24.93     -23.76       0.98       0.00       0.00       0.88       0.44       ----

> <Gold.PLP.Fitness>
24.9312

> <Gold.PLP.PLP>
-23.7613

> <Gold.PLP.part.hbond>
-1.0000

> <Gold.PLP.part.metal>
0.0000

> <Gold.PLP.part.buried>
-5.8778

> <Gold.PLP.part.nonpolar>
-18.2347

> <Gold.PLP.part.repulsive>
0.6522

> <Gold.PLP.ligand.clash>
0.8769

> <Gold.PLP.ligand.torsion>
0.4406

> <Gold.PLP.Chemscore.Hbond>
0.9760

> <Gold.PLP.Chemscore.CHOScore>
0.0000

> <Gold.PLP.Chemscore.Metal>
0.0000

> <Gold.Chemscore.Hbonds>
donor molecule, donor type, donor heavy atom, donor atom, acceptor molecule, acceptor atom, score
      L1  H    10    23       P1 10418  0.59

> <Gold.PLP.Chemscore.Internal.Correction>
   9.000000E+99

#       Name:                CT1002167954
#       Creating user name   hitesit
#       Creation time:       Sun Apr 16 23:04:56 2023


#       File generated by GOLD software.
#

@<TRIPOS>MOLECULE
CT1002167954|ligand_prepared|mol2|1|dock9
    29    30     1
SMALL
NO_CHARGES


@<TRIPOS>ATOM
      1 C1         142.9618 122.7797 188.9007 C.3            1 RES1               0.0000
      2 C2         142.0752 122.5367 190.1391 C.ar           1 RES1               0.0000
      3 C3         142.4457 124.0591 188.2487 C.2            1 RES1               0.0000
      4 C4         144.3942 122.8771 189.4140 C.2            1 RES1               0.0000
      5 C5         142.9046 121.6393 187.8578 C.3            1 RES1               0.0000
      6 C6         142.2057 121.3697 190.8861 C.ar           1 RES1               0.0000
      7 C7         141.1259 123.4696 190.5478 C.ar           1 RES1               0.0000
      8 N8         143.2003 125.1868 188.3855 N.am           1 RES1               0.0000
      9 O9         141.3734 124.0872 187.6573 O.2            1 RES1               0.0000
     10 N10        145.0393 124.0799 189.2925 N.am           1 RES1               0.0000
     11 O11        144.9641 121.9278 189.9377 O.2            1 RES1               0.0000
     12 C12        144.0977 121.6096 186.9157 C.3            1 RES1               0.0000
     13 C13        141.4180 121.1449 192.0029 C.ar           1 RES1               0.0000
     14 C14        140.3389 123.2427 191.6648 C.ar           1 RES1               0.0000
     15 C15        144.4968 125.2476 188.8295 C.2            1 RES1               0.0000
     16 C16        140.4845 122.0812 192.3932 C.ar           1 RES1               0.0000
     17 O17        145.1241 126.3025 188.8015 O.2            1 RES1               0.0000
     18 H18        142.8481 120.6798 188.3865 H              1 RES1               0.0000
     19 H19        141.9887 121.7493 187.2641 H              1 RES1               0.0000
     20 H20        142.9333 120.6203 190.5928 H              1 RES1               0.0000
     21 H21        140.9933 124.3900 189.9893 H              1 RES1               0.0000
     22 H22        142.7599 126.0662 188.1346 H              1 RES1               0.0000
     23 H23        146.0144 124.1073 189.5732 H              1 RES1               0.0000
     24 H24        144.0075 120.7910 186.2047 H              1 RES1               0.0000
     25 H25        144.1697 122.5391 186.3549 H              1 RES1               0.0000
     26 H26        145.0241 121.4759 187.4706 H              1 RES1               0.0000
     27 H27        141.5354 120.2286 192.5719 H              1 RES1               0.0000
     28 H28        139.6051 123.9821 191.9680 H              1 RES1               0.0000
     29 H29        139.8677 121.9051 193.2683 H              1 RES1               0.0000
@<TRIPOS>BOND
    1    1    2 1     
    2    1    3 1     
    3    1    4 1     
    4    1    5 1     
    5    2    6 ar    
    6    2    7 ar    
    7    3    8 1     
    8    3    9 2     
    9    4   10 1     
   10    4   11 2     
   11    5   12 1     
   12    5   18 1     
   13    5   19 1     
   14    6   13 ar    
   15    6   20 1     
   16    7   14 ar    
   17    7   21 1     
   18    8   15 1     
   19    8   22 1     
   20   10   15 1     
   21   10   23 1     
   22   12   24 1     
   23   12   25 1     
   24   12   26 1     
   25   13   16 ar    
   26   13   27 1     
   27   14   16 ar    
   28   14   28 1     
   29   15   17 2     
   30   16   29 1     
@<TRIPOS>SUBSTRUCTURE
      1 RES1           1
@<TRIPOS>SET
DONOR_HYDROGENS      STATIC     ATOMS    <user>   **** ""
2 22 23
ATOM$RED        STATIC     ATOMS    COLORGROUP SYSTEM
2 22 23
@<TRIPOS>COMMENT
> <Gold.Version>
2022.3.0

> <Gold.Id.Protein>
unknown|7rmh_cavity_clean|pdb

> <Gold.Protein.RotatedTorsions>
[ 10338 10331 10329 10326 ] final  -46.75 input   60.01 | X-H torsion
[ 10390 10381 10380 10378 ] final   12.22 input   59.98 | X-H torsion
[ 10359 10350 10349 10347 ] final  138.01 input   59.97 | X-H torsion

> <Gold.Protein.ActiveResidues>
 ARG228  GLU230  ARG232  MET188  LEU190  ALA208  THR114  TYR115  ALA116  TYR117 
 ARG118  GLY119  GLN120 

> <Gold.Protein.RotatedAtoms>
  146.8281  127.5566  186.1606 H   0  0  0  0  0  0  0  0  0  0  0  0  # atno 10338 bound_to 10331
  135.9718  127.7863  178.8222 H   0  0  0  0  0  0  0  0  0  0  0  0  # atno 10359 bound_to 10350
  136.0709  136.1005  181.2897 H   0  0  0  0  0  0  0  0  0  0  0  0  # atno 10390 bound_to 10381
  147.7404  128.8564  185.8064 LP  0  0  0  0  0  0  0  0  0  0  0  0  # atno 14712 bound_to 10331
  147.6103  127.6302  184.7358 LP  0  0  0  0  0  0  0  0  0  0  0  0  # atno 14713 bound_to 10331
  135.6101  135.6622  179.7919 LP  0  0  0  0  0  0  0  0  0  0  0  0  # atno 14720 bound_to 10381
  137.1770  135.5413  180.2354 LP  0  0  0  0  0  0  0  0  0  0  0  0  # atno 14721 bound_to 10381
  136.9424  128.9153  178.1644 LP  0  0  0  0  0  0  0  0  0  0  0  0  # atno 14734 bound_to 10350
  135.9626  129.3034  179.4118 LP  0  0  0  0  0  0  0  0  0  0  0  0  # atno 14735 bound_to 10350

> <Gold.Score>
     Fitness  S(hb_ext) S(vdw_ext)  S(hb_int)    S(int)      intcor
     22.04       2.01      18.02       0.00      -4.76      -0.78

> <Gold.Goldscore.Fitness>
22.0423

> <Gold.Goldscore.Internal.Vdw>
-4.5387

> <Gold.Goldscore.Internal.Torsion>
-0.9924

> <Gold.Goldscore.External.Vdw>
18.0242

> <Gold.Goldscore.Internal.HBond>
0.0000

> <Gold.Goldscore.External.HBond>
2.0149

> <Gold.Goldscore.Internal.Correction>
-0.7752

> <Gold.Goldscore.Hbonds>
donor molecule, donor type, donor heavy atom, donor atom, acceptor molecule, acceptor atom, score
      P1  H 10331 10338       L1    17  0.07
      P1  H 10398 10410       L1     9  0.30
      P1  H 10401 10414       L1     9  0.02

> <Gold.Goldscore.Internal.Vdw.Weighted>
-4.5387

> <Gold.Goldscore.Internal.Torsion.Weighted>
-0.9924

> <Gold.Goldscore.External.Vdw.Weighted>
24.7832

> <Gold.Goldscore.Internal.HBond.Weighted>
0.0000

> <Gold.Goldscore.External.HBond.Weighted>
2.0149

> <Gold.Goldscore.Internal.Correction.Weighted>
-0.7752

> <Gold.Rescore>
     Score     S(PLP)   S(hbond)     S(cho)   S(metal)  DE(clash)   DE(tors)     intcor
     23.49     -22.63       1.00       0.00       0.00       1.15       0.50       ----

> <Gold.PLP.Fitness>
23.4944

> <Gold.PLP.PLP>
-22.6343

> <Gold.PLP.part.hbond>
-1.0000

> <Gold.PLP.part.metal>
0.0000

> <Gold.PLP.part.buried>
-5.1404

> <Gold.PLP.part.nonpolar>
-17.3831

> <Gold.PLP.part.repulsive>
0.2800

> <Gold.PLP.ligand.clash>
1.1492

> <Gold.PLP.ligand.torsion>
0.4953

> <Gold.PLP.Chemscore.Hbond>
1.0000

> <Gold.PLP.Chemscore.CHOScore>
0.0000

> <Gold.PLP.Chemscore.Metal>
0.0000

> <Gold.Chemscore.Hbonds>
donor molecule, donor type, donor heavy atom, donor atom, acceptor molecule, acceptor atom, score
      P1  H 10398 10410       L1     9  1.00
      P1  H 10401 10414       L1     9  0.42

> <Gold.PLP.Chemscore.Internal.Correction>
   9.000000E+99

#       Name:                CT1002167954
#       Creating user name   hitesit
#       Creation time:       Sun Apr 16 23:04:55 2023


#       File generated by GOLD software.
#

@<TRIPOS>MOLECULE
CT1002167954|ligand_prepared|mol2|1|dock6
    29    30     1
SMALL
NO_CHARGES


@<TRIPOS>ATOM
      1 C1         143.7538 125.2704 189.1840 C.3            1 RES1               0.0000
      2 C2         144.6171 124.2274 188.4454 C.ar           1 RES1               0.0000
      3 C3         143.1252 126.1475 188.1052 C.2            1 RES1               0.0000
      4 C4         142.7444 124.4808 190.0101 C.2            1 RES1               0.0000
      5 C5         144.5558 126.1758 190.1475 C.3            1 RES1               0.0000
      6 C6         145.9914 124.4065 188.3190 C.ar           1 RES1               0.0000
      7 C7         144.0550 123.0817 187.8885 C.ar           1 RES1               0.0000
      8 N8         141.7977 125.9750 187.8447 N.am           1 RES1               0.0000
      9 O9         143.7929 126.9506 187.4653 O.2            1 RES1               0.0000
     10 N10        141.4189 124.5902 189.6802 N.am           1 RES1               0.0000
     11 O11        143.0865 123.7520 190.9331 O.2            1 RES1               0.0000
     12 C12        143.6848 126.9946 191.0872 C.3            1 RES1               0.0000
     13 C13        146.7758 123.4729 187.6623 C.ar           1 RES1               0.0000
     14 C14        144.8412 122.1493 187.2320 C.ar           1 RES1               0.0000
     15 C15        140.9027 125.2775 188.6155 C.2            1 RES1               0.0000
     16 C16        146.2015 122.3435 187.1188 C.ar           1 RES1               0.0000
     17 O17        139.7037 125.2842 188.3517 O.2            1 RES1               0.0000
     18 H18        145.2271 125.5475 190.7459 H              1 RES1               0.0000
     19 H19        145.1761 126.8598 189.5552 H              1 RES1               0.0000
     20 H20        146.4608 125.2903 188.7381 H              1 RES1               0.0000
     21 H21        142.9869 122.9086 187.9645 H              1 RES1               0.0000
     22 H22        141.4371 126.4042 186.9985 H              1 RES1               0.0000
     23 H23        140.7556 124.1155 190.2843 H              1 RES1               0.0000
     24 H24        144.2971 127.6118 191.7412 H              1 RES1               0.0000
     25 H25        143.0218 127.6498 190.5260 H              1 RES1               0.0000
     26 H26        143.0725 126.3453 191.7096 H              1 RES1               0.0000
     27 H27        147.8457 123.6310 187.5747 H              1 RES1               0.0000
     28 H28        144.3848 121.2623 186.8053 H              1 RES1               0.0000
     29 H29        146.8162 121.6121 186.6048 H              1 RES1               0.0000
@<TRIPOS>BOND
    1    1    2 1     
    2    1    3 1     
    3    1    4 1     
    4    1    5 1     
    5    2    6 ar    
    6    2    7 ar    
    7    3    8 1     
    8    3    9 2     
    9    4   10 1     
   10    4   11 2     
   11    5   12 1     
   12    5   18 1     
   13    5   19 1     
   14    6   13 ar    
   15    6   20 1     
   16    7   14 ar    
   17    7   21 1     
   18    8   15 1     
   19    8   22 1     
   20   10   15 1     
   21   10   23 1     
   22   12   24 1     
   23   12   25 1     
   24   12   26 1     
   25   13   16 ar    
   26   13   27 1     
   27   14   16 ar    
   28   14   28 1     
   29   15   17 2     
   30   16   29 1     
@<TRIPOS>SUBSTRUCTURE
      1 RES1           1
@<TRIPOS>SET
DONOR_HYDROGENS      STATIC     ATOMS    <user>   **** ""
2 22 23
ATOM$RED        STATIC     ATOMS    COLORGROUP SYSTEM
2 22 23
@<TRIPOS>COMMENT
> <Gold.Version>
2022.3.0

> <Gold.Id.Protein>
unknown|7rmh_cavity_clean|pdb

> <Gold.Protein.RotatedTorsions>
[ 10338 10331 10329 10326 ] final  -76.40 input   60.01 | X-H torsion
[ 10390 10381 10380 10378 ] final  -28.04 input   59.98 | X-H torsion
[ 10359 10350 10349 10347 ] final   89.30 input   59.97 | X-H torsion

> <Gold.Protein.ActiveResidues>
 ARG228  GLU230  ARG232  MET188  LEU190  ALA208  THR114  TYR115  ALA116  TYR117 
 ARG118  GLY119  GLN120 

> <Gold.Protein.RotatedAtoms>
  146.9385  127.9640  186.3866 H   0  0  0  0  0  0  0  0  0  0  0  0  # atno 10338 bound_to 10331
  136.5032  127.9183  178.2772 H   0  0  0  0  0  0  0  0  0  0  0  0  # atno 10359 bound_to 10350
  135.5411  136.0663  180.9244 H   0  0  0  0  0  0  0  0  0  0  0  0  # atno 10390 bound_to 10381
  147.9188  128.7683  185.3670 LP  0  0  0  0  0  0  0  0  0  0  0  0  # atno 14712 bound_to 10331
  147.3206  127.3079  184.9475 LP  0  0  0  0  0  0  0  0  0  0  0  0  # atno 14713 bound_to 10331
  136.1833  135.4772  179.5503 LP  0  0  0  0  0  0  0  0  0  0  0  0  # atno 14720 bound_to 10381
  137.1373  135.7607  180.8450 LP  0  0  0  0  0  0  0  0  0  0  0  0  # atno 14721 bound_to 10381
  136.7185  129.4911  178.6366 LP  0  0  0  0  0  0  0  0  0  0  0  0  # atno 14734 bound_to 10350
  135.6516  128.5948  179.4881 LP  0  0  0  0  0  0  0  0  0  0  0  0  # atno 14735 bound_to 10350

> <Gold.Score>
     Fitness  S(hb_ext) S(vdw_ext)  S(hb_int)    S(int)      intcor
     17.53       0.55      12.74       0.00      -0.54      -0.78

> <Gold.Goldscore.Fitness>
17.5312

> <Gold.Goldscore.Internal.Vdw>
-0.7134

> <Gold.Goldscore.Internal.Torsion>
-0.5977

> <Gold.Goldscore.External.Vdw>
12.7399

> <Gold.Goldscore.Internal.HBond>
0.0000

> <Gold.Goldscore.External.HBond>
0.5496

> <Gold.Goldscore.Internal.Correction>
-0.7752

> <Gold.Goldscore.Hbonds>
donor molecule, donor type, donor heavy atom, donor atom, acceptor molecule, acceptor atom, score
      P1  H 10398 10410       L1    17  0.07
      L1  H     8    22       P1 10342  0.06

> <Gold.Goldscore.Internal.Vdw.Weighted>
-0.7134

> <Gold.Goldscore.Internal.Torsion.Weighted>
-0.5977

> <Gold.Goldscore.External.Vdw.Weighted>
17.5174

> <Gold.Goldscore.Internal.HBond.Weighted>
0.0000

> <Gold.Goldscore.External.HBond.Weighted>
0.5496

> <Gold.Goldscore.Internal.Correction.Weighted>
-0.7752

> <Gold.Rescore>
     Score     S(PLP)   S(hbond)     S(cho)   S(metal)  DE(clash)   DE(tors)     intcor
     13.38     -11.33       1.00       0.00       0.00       0.00       0.48       ----

> <Gold.PLP.Fitness>
13.3810

> <Gold.PLP.PLP>
-11.3344

> <Gold.PLP.part.hbond>
-1.0000

> <Gold.PLP.part.metal>
0.0000

> <Gold.PLP.part.buried>
-3.7251

> <Gold.PLP.part.nonpolar>
-7.2548

> <Gold.PLP.part.repulsive>
0.3663

> <Gold.PLP.ligand.clash>
0.0000

> <Gold.PLP.ligand.torsion>
0.4767

> <Gold.PLP.Chemscore.Hbond>
1.0000

> <Gold.PLP.Chemscore.CHOScore>
0.0000

> <Gold.PLP.Chemscore.Metal>
0.0000

> <Gold.Chemscore.Hbonds>
donor molecule, donor type, donor heavy atom, donor atom, acceptor molecule, acceptor atom, score
      P1  H 10398 10410       L1    17  0.26

> <Gold.PLP.Chemscore.Internal.Correction>
   9.000000E+99

#       Name:                CT1002167954
#       Creating user name   hitesit
#       Creation time:       Sun Apr 16 23:04:54 2023


#       File generated by GOLD software.
#

@<TRIPOS>MOLECULE
CT1002167954|ligand_prepared|mol2|1|dock4
    29    30     1
SMALL
NO_CHARGES


@<TRIPOS>ATOM
      1 C1         142.5147 127.9436 189.3029 C.3            1 RES1               0.0000
      2 C2         143.0380 129.3927 189.2324 C.ar           1 RES1               0.0000
      3 C3         141.0212 128.0121 188.9977 C.2            1 RES1               0.0000
      4 C4         143.3222 127.1482 188.2831 C.2            1 RES1               0.0000
      5 C5         142.7034 127.2777 190.6859 C.3            1 RES1               0.0000
      6 C6         142.9845 130.1081 188.0399 C.ar           1 RES1               0.0000
      7 C7         143.5737 130.0272 190.3500 C.ar           1 RES1               0.0000
      8 N8         140.6048 127.5691 187.7770 N.am           1 RES1               0.0000
      9 O9         140.2259 128.4842 189.8007 O.2            1 RES1               0.0000
     10 N10        142.6597 126.6344 187.1992 N.am           1 RES1               0.0000
     11 O11        144.5293 126.9759 188.3999 O.2            1 RES1               0.0000
     12 C12        142.2360 125.8318 190.7391 C.3            1 RES1               0.0000
     13 C13        143.4470 131.4117 187.9679 C.ar           1 RES1               0.0000
     14 C14        144.0358 131.3308 190.2758 C.ar           1 RES1               0.0000
     15 C15        141.3434 126.8348 186.8841 C.2            1 RES1               0.0000
     16 C16        143.9725 132.0240 189.0858 C.ar           1 RES1               0.0000
     17 O17        140.8324 126.3850 185.8625 O.2            1 RES1               0.0000
     18 H18        143.7665 127.3153 190.9538 H              1 RES1               0.0000
     19 H19        142.1483 127.8560 191.4349 H              1 RES1               0.0000
     20 H20        142.5766 129.6420 187.1492 H              1 RES1               0.0000
     21 H21        143.6345 129.5008 191.2965 H              1 RES1               0.0000
     22 H22        139.6567 127.8056 187.5025 H              1 RES1               0.0000
     23 H23        143.1976 126.0481 186.5690 H              1 RES1               0.0000
     24 H24        142.3908 125.4126 191.7311 H              1 RES1               0.0000
     25 H25        141.1764 125.7599 190.5025 H              1 RES1               0.0000
     26 H26        142.7850 125.2224 190.0243 H              1 RES1               0.0000
     27 H27        143.3962 131.9524 187.0287 H              1 RES1               0.0000
     28 H28        144.4492 131.8085 191.1579 H              1 RES1               0.0000
     29 H29        144.3343 133.0453 189.0293 H              1 RES1               0.0000
@<TRIPOS>BOND
    1    1    2 1     
    2    1    3 1     
    3    1    4 1     
    4    1    5 1     
    5    2    6 ar    
    6    2    7 ar    
    7    3    8 1     
    8    3    9 2     
    9    4   10 1     
   10    4   11 2     
   11    5   12 1     
   12    5   18 1     
   13    5   19 1     
   14    6   13 ar    
   15    6   20 1     
   16    7   14 ar    
   17    7   21 1     
   18    8   15 1     
   19    8   22 1     
   20   10   15 1     
   21   10   23 1     
   22   12   24 1     
   23   12   25 1     
   24   12   26 1     
   25   13   16 ar    
   26   13   27 1     
   27   14   16 ar    
   28   14   28 1     
   29   15   17 2     
   30   16   29 1     
@<TRIPOS>SUBSTRUCTURE
      1 RES1           1
@<TRIPOS>SET
DONOR_HYDROGENS      STATIC     ATOMS    <user>   **** ""
2 22 23
ATOM$RED        STATIC     ATOMS    COLORGROUP SYSTEM
2 22 23
@<TRIPOS>COMMENT
> <Gold.Version>
2022.3.0

> <Gold.Id.Protein>
unknown|7rmh_cavity_clean|pdb

> <Gold.Protein.RotatedTorsions>
[ 10338 10331 10329 10326 ] final  -62.43 input   60.01 | X-H torsion
[ 10390 10381 10380 10378 ] final -140.81 input   59.98 | X-H torsion
[ 10359 10350 10349 10347 ] final -116.07 input   59.97 | X-H torsion

> <Gold.Protein.ActiveResidues>
 ARG228  GLU230  ARG232  MET188  LEU190  ALA208  THR114  TYR115  ALA116  TYR117 
 ARG118  GLY119  GLN120 

> <Gold.Protein.RotatedAtoms>
  146.8691  127.7635  186.3044 H   0  0  0  0  0  0  0  0  0  0  0  0  # atno 10338 bound_to 10331
  135.8402  129.1214  179.4826 H   0  0  0  0  0  0  0  0  0  0  0  0  # atno 10359 bound_to 10350
  136.0689  135.5017  179.5704 H   0  0  0  0  0  0  0  0  0  0  0  0  # atno 10390 bound_to 10381
  147.8498  128.8372  185.5744 LP  0  0  0  0  0  0  0  0  0  0  0  0  # atno 14712 bound_to 10331
  147.4595  127.4410  184.8229 LP  0  0  0  0  0  0  0  0  0  0  0  0  # atno 14713 bound_to 10331
  137.1776  135.7176  180.7417 LP  0  0  0  0  0  0  0  0  0  0  0  0  # atno 14720 bound_to 10381
  135.6114  136.0889  181.0173 LP  0  0  0  0  0  0  0  0  0  0  0  0  # atno 14721 bound_to 10381
  136.1154  127.7532  178.6449 LP  0  0  0  0  0  0  0  0  0  0  0  0  # atno 14734 bound_to 10350
  136.9220  129.1217  178.2665 LP  0  0  0  0  0  0  0  0  0  0  0  0  # atno 14735 bound_to 10350

> <Gold.Score>
     Fitness  S(hb_ext) S(vdw_ext)  S(hb_int)    S(int)      intcor
     17.45       0.02      12.69       0.00      -0.01      -0.78

> <Gold.Goldscore.Fitness>
17.4500

> <Gold.Goldscore.Internal.Vdw>
-0.4182

> <Gold.Goldscore.Internal.Torsion>
-0.3744

> <Gold.Goldscore.External.Vdw>
12.6856

> <Gold.Goldscore.Internal.HBond>
0.0000

> <Gold.Goldscore.External.HBond>
0.0201

> <Gold.Goldscore.Internal.Correction>
-0.7797

> <Gold.Goldscore.Hbonds>
donor molecule, donor type, donor heavy atom, donor atom, acceptor molecule, acceptor atom, score
      P1  H 10339 10351       L1    17  0.01

> <Gold.Goldscore.Internal.Vdw.Weighted>
-0.4182

> <Gold.Goldscore.Internal.Torsion.Weighted>
-0.3744

> <Gold.Goldscore.External.Vdw.Weighted>
17.4428

> <Gold.Goldscore.Internal.HBond.Weighted>
0.0000

> <Gold.Goldscore.External.HBond.Weighted>
0.0201

> <Gold.Goldscore.Internal.Correction.Weighted>
-0.7797

> <Gold.Rescore>
     Score     S(PLP)   S(hbond)     S(cho)   S(metal)  DE(clash)   DE(tors)     intcor
     20.38     -14.81       1.88       0.00       0.00       0.00       0.03       ----

> <Gold.PLP.Fitness>
20.3806

> <Gold.PLP.PLP>
-14.8137

> <Gold.PLP.part.hbond>
-4.6884

> <Gold.PLP.part.metal>
0.0000

> <Gold.PLP.part.buried>
-1.7751

> <Gold.PLP.part.nonpolar>
-10.5691

> <Gold.PLP.part.repulsive>
0.7273

> <Gold.PLP.ligand.clash>
0.0000

> <Gold.PLP.ligand.torsion>
0.0306

> <Gold.PLP.Chemscore.Hbond>
1.8760

> <Gold.PLP.Chemscore.CHOScore>
0.0000

> <Gold.PLP.Chemscore.Metal>
0.0000

> <Gold.Chemscore.Hbonds>
donor molecule, donor type, donor heavy atom, donor atom, acceptor molecule, acceptor atom, score
      P1  H 10339 10351       L1    17  0.34

> <Gold.PLP.Chemscore.Internal.Correction>
   9.000000E+99

#       Name:                CT1002167954
#       Creating user name   hitesit
#       Creation time:       Sun Apr 16 23:04:56 2023


#       File generated by GOLD software.
#

@<TRIPOS>MOLECULE
CT1002167954|ligand_prepared|mol2|1|dock8
    29    30     1
SMALL
NO_CHARGES


@<TRIPOS>ATOM
      1 C1         144.1867 126.7712 189.5721 C.3            1 RES1               0.0000
      2 C2         143.7288 127.8215 190.6046 C.ar           1 RES1               0.0000
      3 C3         143.8200 125.4095 190.1547 C.2            1 RES1               0.0000
      4 C4         143.4636 127.1071 188.2725 C.2            1 RES1               0.0000
      5 C5         145.7075 126.7922 189.2918 C.3            1 RES1               0.0000
      6 C6         144.5474 128.1655 191.6762 C.ar           1 RES1               0.0000
      7 C7         142.4940 128.4557 190.4974 C.ar           1 RES1               0.0000
      8 N8         142.7597 124.7516 189.6043 N.am           1 RES1               0.0000
      9 O9         144.4271 124.9379 191.1083 O.2            1 RES1               0.0000
     10 N10        142.5455 126.2075 187.7975 N.am           1 RES1               0.0000
     11 O11        143.6685 128.1503 187.6642 O.2            1 RES1               0.0000
     12 C12        146.1262 125.9242 188.1157 C.3            1 RES1               0.0000
     13 C13        144.1473 129.1114 192.6054 C.ar           1 RES1               0.0000
     14 C14        142.0957 129.4012 191.4280 C.ar           1 RES1               0.0000
     15 C15        142.1385 125.0593 188.4206 C.2            1 RES1               0.0000
     16 C16        142.9216 129.7302 192.4818 C.ar           1 RES1               0.0000
     17 O17        141.2676 124.3287 187.9570 O.2            1 RES1               0.0000
     18 H18        146.0160 127.8263 189.0951 H              1 RES1               0.0000
     19 H19        146.2367 126.4494 190.1896 H              1 RES1               0.0000
     20 H20        145.5144 127.6874 191.7913 H              1 RES1               0.0000
     21 H21        141.8274 128.2119 189.6772 H              1 RES1               0.0000
     22 H22        142.3950 123.9574 190.1205 H              1 RES1               0.0000
     23 H23        142.1269 126.4127 186.8959 H              1 RES1               0.0000
     24 H24        147.2021 125.9749 187.9626 H              1 RES1               0.0000
     25 H25        145.8572 124.8842 188.2886 H              1 RES1               0.0000
     26 H26        145.6378 126.2529 187.2006 H              1 RES1               0.0000
     27 H27        144.8004 129.3658 193.4337 H              1 RES1               0.0000
     28 H28        141.1299 129.8852 191.3271 H              1 RES1               0.0000
     29 H29        142.6086 130.4715 193.2096 H              1 RES1               0.0000
@<TRIPOS>BOND
    1    1    2 1     
    2    1    3 1     
    3    1    4 1     
    4    1    5 1     
    5    2    6 ar    
    6    2    7 ar    
    7    3    8 1     
    8    3    9 2     
    9    4   10 1     
   10    4   11 2     
   11    5   12 1     
   12    5   18 1     
   13    5   19 1     
   14    6   13 ar    
   15    6   20 1     
   16    7   14 ar    
   17    7   21 1     
   18    8   15 1     
   19    8   22 1     
   20   10   15 1     
   21   10   23 1     
   22   12   24 1     
   23   12   25 1     
   24   12   26 1     
   25   13   16 ar    
   26   13   27 1     
   27   14   16 ar    
   28   14   28 1     
   29   15   17 2     
   30   16   29 1     
@<TRIPOS>SUBSTRUCTURE
      1 RES1           1
@<TRIPOS>SET
DONOR_HYDROGENS      STATIC     ATOMS    <user>   **** ""
2 22 23
ATOM$RED        STATIC     ATOMS    COLORGROUP SYSTEM
2 22 23
@<TRIPOS>COMMENT
> <Gold.Version>
2022.3.0

> <Gold.Id.Protein>
unknown|7rmh_cavity_clean|pdb

> <Gold.Protein.RotatedTorsions>
[ 10338 10331 10329 10326 ] final  -65.94 input   60.01 | X-H torsion
[ 10390 10381 10380 10378 ] final   84.42 input   59.98 | X-H torsion
[ 10359 10350 10349 10347 ] final   18.90 input   59.97 | X-H torsion

> <Gold.Protein.ActiveResidues>
 ARG228  GLU230  ARG232  MET188  LEU190  ALA208  THR114  TYR115  ALA116  TYR117 
 ARG118  GLY119  GLN120 

> <Gold.Protein.RotatedAtoms>
  146.8838  127.8130  186.3294 H   0  0  0  0  0  0  0  0  0  0  0  0  # atno 10338 bound_to 10331
  136.9398  128.8995  178.1648 H   0  0  0  0  0  0  0  0  0  0  0  0  # atno 10359 bound_to 10350
  137.0749  135.8032  180.9430 H   0  0  0  0  0  0  0  0  0  0  0  0  # atno 10390 bound_to 10381
  147.8699  128.8243  185.5218 LP  0  0  0  0  0  0  0  0  0  0  0  0  # atno 14712 bound_to 10331
  147.4246  127.4040  184.8503 LP  0  0  0  0  0  0  0  0  0  0  0  0  # atno 14713 bound_to 10331
  135.4704  136.0466  180.8248 LP  0  0  0  0  0  0  0  0  0  0  0  0  # atno 14720 bound_to 10381
  136.3055  135.4563  179.5518 LP  0  0  0  0  0  0  0  0  0  0  0  0  # atno 14721 bound_to 10381
  135.9714  129.3135  179.4058 LP  0  0  0  0  0  0  0  0  0  0  0  0  # atno 14734 bound_to 10350
  135.9593  127.7847  178.8320 LP  0  0  0  0  0  0  0  0  0  0  0  0  # atno 14735 bound_to 10350

> <Gold.Score>
     Fitness  S(hb_ext) S(vdw_ext)  S(hb_int)    S(int)      intcor
     15.63       6.17       7.49       0.00      -0.84      -0.78

> <Gold.Goldscore.Fitness>
15.6323

> <Gold.Goldscore.Internal.Vdw>
-1.1054

> <Gold.Goldscore.Internal.Torsion>
-0.5077

> <Gold.Goldscore.External.Vdw>
7.4944

> <Gold.Goldscore.Internal.HBond>
0.0000

> <Gold.Goldscore.External.HBond>
6.1653

> <Gold.Goldscore.Internal.Correction>
-0.7752

> <Gold.Goldscore.Hbonds>
donor molecule, donor type, donor heavy atom, donor atom, acceptor molecule, acceptor atom, score
      P1  H 10398 10410       L1    17  1.00
      P1  H 10401 10414       L1    17  0.03

> <Gold.Goldscore.Internal.Vdw.Weighted>
-1.1054

> <Gold.Goldscore.Internal.Torsion.Weighted>
-0.5077

> <Gold.Goldscore.External.Vdw.Weighted>
10.3049

> <Gold.Goldscore.Internal.HBond.Weighted>
0.0000

> <Gold.Goldscore.External.HBond.Weighted>
6.1653

> <Gold.Goldscore.Internal.Correction.Weighted>
-0.7752

> <Gold.Rescore>
     Score     S(PLP)   S(hbond)     S(cho)   S(metal)  DE(clash)   DE(tors)     intcor
     11.07      -9.70       1.05       0.00       0.00       0.43       0.67       ----

> <Gold.PLP.Fitness>
11.0739

> <Gold.PLP.PLP>
-9.7021

> <Gold.PLP.part.hbond>
-3.6835

> <Gold.PLP.part.metal>
0.0000

> <Gold.PLP.part.buried>
-2.8562

> <Gold.PLP.part.nonpolar>
-4.1831

> <Gold.PLP.part.repulsive>
0.5866

> <Gold.PLP.ligand.clash>
0.4276

> <Gold.PLP.ligand.torsion>
0.6705

> <Gold.PLP.Chemscore.Hbond>
1.0468

> <Gold.PLP.Chemscore.CHOScore>
0.0000

> <Gold.PLP.Chemscore.Metal>
0.0000

> <Gold.Chemscore.Hbonds>
donor molecule, donor type, donor heavy atom, donor atom, acceptor molecule, acceptor atom, score
      P1  H 10398 10410       L1    17  1.00
      P1  H 10401 10414       L1    17  0.11

> <Gold.PLP.Chemscore.Internal.Correction>
   9.000000E+99

#       Name:                CT1002167954
#       Creating user name   hitesit
#       Creation time:       Sun Apr 16 23:04:56 2023


#       File generated by GOLD software.
#

@<TRIPOS>MOLECULE
CT1002167954|ligand_prepared|mol2|1|dock7
    29    30     1
SMALL
NO_CHARGES


@<TRIPOS>ATOM
      1 C1         142.0647 124.2187 188.8473 C.3            1 RES1               0.0000
      2 C2         143.5499 124.3438 189.2440 C.ar           1 RES1               0.0000
      3 C3         141.2603 124.4291 190.1267 C.2            1 RES1               0.0000
      4 C4         141.8186 125.2760 187.7767 C.2            1 RES1               0.0000
      5 C5         141.6907 122.8409 188.2529 C.3            1 RES1               0.0000
      6 C6         144.5547 124.1252 188.3062 C.ar           1 RES1               0.0000
      7 C7         143.9300 124.6790 190.5408 C.ar           1 RES1               0.0000
      8 N8         140.6010 125.6142 190.2708 N.am           1 RES1               0.0000
      9 O9         141.2371 123.5841 191.0131 O.2            1 RES1               0.0000
     10 N10        140.9683 126.3078 188.0768 N.am           1 RES1               0.0000
     11 O11        142.3663 125.2339 186.6819 O.2            1 RES1               0.0000
     12 C12        142.4484 121.6786 188.8751 C.3            1 RES1               0.0000
     13 C13        145.8910 124.2405 188.6515 C.ar           1 RES1               0.0000
     14 C14        145.2670 124.7936 190.8841 C.ar           1 RES1               0.0000
     15 C15        140.3722 126.5413 189.2861 C.2            1 RES1               0.0000
     16 C16        146.2481 124.5752 189.9404 C.ar           1 RES1               0.0000
     17 O17        139.6633 127.5216 189.4953 O.2            1 RES1               0.0000
     18 H18        140.6152 122.6763 188.3924 H              1 RES1               0.0000
     19 H19        141.8905 122.8556 187.1743 H              1 RES1               0.0000
     20 H20        144.2930 123.8586 187.2877 H              1 RES1               0.0000
     21 H21        143.1754 124.8543 191.3000 H              1 RES1               0.0000
     22 H22        140.2453 125.8311 191.1964 H              1 RES1               0.0000
     23 H23        140.7602 126.9623 187.3293 H              1 RES1               0.0000
     24 H24        142.1484 120.7359 188.4222 H              1 RES1               0.0000
     25 H25        143.5206 121.7967 188.7329 H              1 RES1               0.0000
     26 H26        142.2528 121.6186 189.9437 H              1 RES1               0.0000
     27 H27        146.6593 124.0663 187.9055 H              1 RES1               0.0000
     28 H28        145.5434 125.0566 191.8998 H              1 RES1               0.0000
     29 H29        147.2950 124.6658 190.2105 H              1 RES1               0.0000
@<TRIPOS>BOND
    1    1    2 1     
    2    1    3 1     
    3    1    4 1     
    4    1    5 1     
    5    2    6 ar    
    6    2    7 ar    
    7    3    8 1     
    8    3    9 2     
    9    4   10 1     
   10    4   11 2     
   11    5   12 1     
   12    5   18 1     
   13    5   19 1     
   14    6   13 ar    
   15    6   20 1     
   16    7   14 ar    
   17    7   21 1     
   18    8   15 1     
   19    8   22 1     
   20   10   15 1     
   21   10   23 1     
   22   12   24 1     
   23   12   25 1     
   24   12   26 1     
   25   13   16 ar    
   26   13   27 1     
   27   14   16 ar    
   28   14   28 1     
   29   15   17 2     
   30   16   29 1     
@<TRIPOS>SUBSTRUCTURE
      1 RES1           1
@<TRIPOS>SET
DONOR_HYDROGENS      STATIC     ATOMS    <user>   **** ""
2 22 23
ATOM$RED        STATIC     ATOMS    COLORGROUP SYSTEM
2 22 23
@<TRIPOS>COMMENT
> <Gold.Version>
2022.3.0

> <Gold.Id.Protein>
unknown|7rmh_cavity_clean|pdb

> <Gold.Protein.RotatedTorsions>
[ 10338 10331 10329 10326 ] final  -71.29 input   60.01 | X-H torsion
[ 10390 10381 10380 10378 ] final  136.98 input   59.98 | X-H torsion
[ 10359 10350 10349 10347 ] final  -75.62 input   59.97 | X-H torsion

> <Gold.Protein.ActiveResidues>
 ARG228  GLU230  ARG232  MET188  LEU190  ALA208  THR114  TYR115  ALA116  TYR117 
 ARG118  GLY119  GLN120 

> <Gold.Protein.RotatedAtoms>
  146.9098  127.8897  186.3619 H   0  0  0  0  0  0  0  0  0  0  0  0  # atno 10338 bound_to 10331
  136.2486  129.5218  179.1786 H   0  0  0  0  0  0  0  0  0  0  0  0  # atno 10359 bound_to 10350
  137.1453  135.5204  180.1669 H   0  0  0  0  0  0  0  0  0  0  0  0  # atno 10390 bound_to 10381
  147.8970  128.7990  185.4422 LP  0  0  0  0  0  0  0  0  0  0  0  0  # atno 14712 bound_to 10331
  147.3714  127.3521  184.8972 LP  0  0  0  0  0  0  0  0  0  0  0  0  # atno 14713 bound_to 10331
  136.1455  136.0982  181.3133 LP  0  0  0  0  0  0  0  0  0  0  0  0  # atno 14720 bound_to 10381
  135.5593  135.6896  179.8449 LP  0  0  0  0  0  0  0  0  0  0  0  0  # atno 14721 bound_to 10381
  135.7504  127.9728  179.1385 LP  0  0  0  0  0  0  0  0  0  0  0  0  # atno 14734 bound_to 10350
  136.8760  128.4990  178.0789 LP  0  0  0  0  0  0  0  0  0  0  0  0  # atno 14735 bound_to 10350

> <Gold.Score>
     Fitness  S(hb_ext) S(vdw_ext)  S(hb_int)    S(int)      intcor
     15.57       2.70      12.55       0.00      -4.40      -0.78

> <Gold.Goldscore.Fitness>
15.5715

> <Gold.Goldscore.Internal.Vdw>
-3.9200

> <Gold.Goldscore.Internal.Torsion>
-1.2512

> <Gold.Goldscore.External.Vdw>
12.5548

> <Gold.Goldscore.Internal.HBond>
0.0000

> <Gold.Goldscore.External.HBond>
2.7046

> <Gold.Goldscore.Internal.Correction>
-0.7752

> <Gold.Goldscore.Hbonds>
donor molecule, donor type, donor heavy atom, donor atom, acceptor molecule, acceptor atom, score
      P1  H 10401 10414       L1    11  0.08
      P1  H 10339 10351       L1    11  0.51
      L1  H    10    23       P1 10342  0.60

> <Gold.Goldscore.Internal.Vdw.Weighted>
-3.9200

> <Gold.Goldscore.Internal.Torsion.Weighted>
-1.2512

> <Gold.Goldscore.External.Vdw.Weighted>
17.2629

> <Gold.Goldscore.Internal.HBond.Weighted>
0.0000

> <Gold.Goldscore.External.HBond.Weighted>
2.7046

> <Gold.Goldscore.Internal.Correction.Weighted>
-0.7752

> <Gold.Rescore>
     Score     S(PLP)   S(hbond)     S(cho)   S(metal)  DE(clash)   DE(tors)     intcor
     25.07     -21.93       1.79       0.00       0.00       1.36       0.44       ----

> <Gold.PLP.Fitness>
25.0653

> <Gold.PLP.PLP>
-21.9298

> <Gold.PLP.part.hbond>
-2.0000

> <Gold.PLP.part.metal>
0.0000

> <Gold.PLP.part.buried>
-4.0722

> <Gold.PLP.part.nonpolar>
-16.1397

> <Gold.PLP.part.repulsive>
0.1737

> <Gold.PLP.ligand.clash>
1.3639

> <Gold.PLP.ligand.torsion>
0.4383

> <Gold.PLP.Chemscore.Hbond>
1.7920

> <Gold.PLP.Chemscore.CHOScore>
0.0000

> <Gold.PLP.Chemscore.Metal>
0.0000

> <Gold.Chemscore.Hbonds>
donor molecule, donor type, donor heavy atom, donor atom, acceptor molecule, acceptor atom, score
      P1  H 10401 10414       L1    11  0.60

> <Gold.PLP.Chemscore.Internal.Correction>
   9.000000E+99

#       Name:                CT1002167954
#       Creating user name   hitesit
#       Creation time:       Sun Apr 16 23:04:53 2023


#       File generated by GOLD software.
#

@<TRIPOS>MOLECULE
CT1002167954|ligand_prepared|mol2|1|dock2
    29    30     1
SMALL
NO_CHARGES


@<TRIPOS>ATOM
      1 C1         143.1880 127.5440 189.6419 C.3            1 RES1               0.0000
      2 C2         142.7691 129.0259 189.5569 C.ar           1 RES1               0.0000
      3 C3         142.1193 126.8439 190.4763 C.2            1 RES1               0.0000
      4 C4         143.2817 127.0440 188.2046 C.2            1 RES1               0.0000
      5 C5         144.5618 127.3207 190.3160 C.3            1 RES1               0.0000
      6 C6         143.1679 129.9322 190.5348 C.ar           1 RES1               0.0000
      7 C7         141.9878 129.5012 188.5070 C.ar           1 RES1               0.0000
      8 N8         141.2370 126.0349 189.8228 N.am           1 RES1               0.0000
      9 O9         142.0276 127.0299 191.6834 O.2            1 RES1               0.0000
     10 N10        142.3915 126.0843 187.7993 N.am           1 RES1               0.0000
     11 O11        144.1077 127.4843 187.4146 O.2            1 RES1               0.0000
     12 C12        145.1883 125.9719 189.9991 C.3            1 RES1               0.0000
     13 C13        142.8013 131.2660 190.4642 C.ar           1 RES1               0.0000
     14 C14        141.6222 130.8354 188.4385 C.ar           1 RES1               0.0000
     15 C15        141.3537 125.5792 188.5342 C.2            1 RES1               0.0000
     16 C16        142.0287 131.7186 189.4160 C.ar           1 RES1               0.0000
     17 O17        140.5616 124.7577 188.0817 O.2            1 RES1               0.0000
     18 H18        145.2473 128.1133 189.9916 H              1 RES1               0.0000
     19 H19        144.4401 127.4068 191.4028 H              1 RES1               0.0000
     20 H20        143.7741 129.5939 191.3685 H              1 RES1               0.0000
     21 H21        141.6556 128.8242 187.7273 H              1 RES1               0.0000
     22 H22        140.4144 125.7416 190.3401 H              1 RES1               0.0000
     23 H23        142.5139 125.7118 186.8631 H              1 RES1               0.0000
     24 H24        146.1501 125.8668 190.4967 H              1 RES1               0.0000
     25 H25        144.5445 125.1600 190.3311 H              1 RES1               0.0000
     26 H26        145.3469 125.8624 188.9283 H              1 RES1               0.0000
     27 H27        143.1227 131.9567 191.2368 H              1 RES1               0.0000
     28 H28        141.0135 131.1871 187.6120 H              1 RES1               0.0000
     29 H29        141.7421 132.7635 189.3607 H              1 RES1               0.0000
@<TRIPOS>BOND
    1    1    2 1     
    2    1    3 1     
    3    1    4 1     
    4    1    5 1     
    5    2    6 ar    
    6    2    7 ar    
    7    3    8 1     
    8    3    9 2     
    9    4   10 1     
   10    4   11 2     
   11    5   12 1     
   12    5   18 1     
   13    5   19 1     
   14    6   13 ar    
   15    6   20 1     
   16    7   14 ar    
   17    7   21 1     
   18    8   15 1     
   19    8   22 1     
   20   10   15 1     
   21   10   23 1     
   22   12   24 1     
   23   12   25 1     
   24   12   26 1     
   25   13   16 ar    
   26   13   27 1     
   27   14   16 ar    
   28   14   28 1     
   29   15   17 2     
   30   16   29 1     
@<TRIPOS>SUBSTRUCTURE
      1 RES1           1
@<TRIPOS>SET
DONOR_HYDROGENS      STATIC     ATOMS    <user>   **** ""
2 22 23
ATOM$RED        STATIC     ATOMS    COLORGROUP SYSTEM
2 22 23
@<TRIPOS>COMMENT
> <Gold.Version>
2022.3.0

> <Gold.Id.Protein>
unknown|7rmh_cavity_clean|pdb

> <Gold.Protein.RotatedTorsions>
[ 10338 10331 10329 10326 ] final  -30.05 input   60.01 | X-H torsion
[ 10390 10381 10380 10378 ] final   91.48 input   59.98 | X-H torsion
[ 10359 10350 10349 10347 ] final -156.81 input   59.97 | X-H torsion

> <Gold.Protein.ActiveResidues>
 ARG228  GLU230  ARG232  MET188  LEU190  ALA208  THR114  TYR115  ALA116  TYR117 
 ARG118  GLY119  GLN120 

> <Gold.Protein.RotatedAtoms>
  146.8303  127.3739  185.9592 H   0  0  0  0  0  0  0  0  0  0  0  0  # atno 10338 bound_to 10331
  135.6479  128.4987  179.4589 H   0  0  0  0  0  0  0  0  0  0  0  0  # atno 10359 bound_to 10350
  137.1277  135.7613  180.8495 H   0  0  0  0  0  0  0  0  0  0  0  0  # atno 10390 bound_to 10381
  147.5955  128.8079  186.0337 LP  0  0  0  0  0  0  0  0  0  0  0  0  # atno 14712 bound_to 10331
  147.7528  127.8628  184.7113 LP  0  0  0  0  0  0  0  0  0  0  0  0  # atno 14713 bound_to 10331
  135.5315  136.0693  180.9208 LP  0  0  0  0  0  0  0  0  0  0  0  0  # atno 14720 bound_to 10381
  136.1911  135.4757  179.5499 LP  0  0  0  0  0  0  0  0  0  0  0  0  # atno 14721 bound_to 10381
  136.5673  127.9733  178.2229 LP  0  0  0  0  0  0  0  0  0  0  0  0  # atno 14734 bound_to 10350
  136.6637  129.5283  178.7123 LP  0  0  0  0  0  0  0  0  0  0  0  0  # atno 14735 bound_to 10350

> <Gold.Score>
     Fitness  S(hb_ext) S(vdw_ext)  S(hb_int)    S(int)      intcor
     15.09       5.46       7.81       0.00      -1.10      -0.78

> <Gold.Goldscore.Fitness>
15.0937

> <Gold.Goldscore.Internal.Vdw>
-0.9710

> <Gold.Goldscore.Internal.Torsion>
-0.9142

> <Gold.Goldscore.External.Vdw>
7.8121

> <Gold.Goldscore.Internal.HBond>
0.0000

> <Gold.Goldscore.External.HBond>
5.4553

> <Gold.Goldscore.Internal.Correction>
-0.7819

> <Gold.Goldscore.Hbonds>
donor molecule, donor type, donor heavy atom, donor atom, acceptor molecule, acceptor atom, score
      P1  H 10398 10410       L1    17  0.91

> <Gold.Goldscore.Internal.Vdw.Weighted>
-0.9710

> <Gold.Goldscore.Internal.Torsion.Weighted>
-0.9142

> <Gold.Goldscore.External.Vdw.Weighted>
10.7416

> <Gold.Goldscore.Internal.HBond.Weighted>
0.0000

> <Gold.Goldscore.External.HBond.Weighted>
5.4553

> <Gold.Goldscore.Internal.Correction.Weighted>
-0.7819

> <Gold.Rescore>
     Score     S(PLP)   S(hbond)     S(cho)   S(metal)  DE(clash)   DE(tors)     intcor
     20.62     -17.21       1.96       0.00       0.00       0.00       1.23       ----

> <Gold.PLP.Fitness>
20.6197

> <Gold.PLP.PLP>
-17.2084

> <Gold.PLP.part.hbond>
-2.6176

> <Gold.PLP.part.metal>
0.0000

> <Gold.PLP.part.buried>
-3.1243

> <Gold.PLP.part.nonpolar>
-12.2573

> <Gold.PLP.part.repulsive>
0.2215

> <Gold.PLP.ligand.clash>
0.0000

> <Gold.PLP.ligand.torsion>
1.2344

> <Gold.PLP.Chemscore.Hbond>
1.9600

> <Gold.PLP.Chemscore.CHOScore>
0.0000

> <Gold.PLP.Chemscore.Metal>
0.0000

> <Gold.Chemscore.Hbonds>
donor molecule, donor type, donor heavy atom, donor atom, acceptor molecule, acceptor atom, score
      P1  H 10398 10410       L1    17  1.00

> <Gold.PLP.Chemscore.Internal.Correction>
   9.000000E+99

#       Name:                CT1002167954
#       Creating user name   hitesit
#       Creation time:       Sun Apr 16 23:04:57 2023


#       File generated by GOLD software.
#

@<TRIPOS>MOLECULE
CT1002167954|ligand_prepared|mol2|1|dock10
    29    30     1
SMALL
NO_CHARGES


@<TRIPOS>ATOM
      1 C1         142.7792 126.0068 189.3028 C.3            1 RES1               0.0000
      2 C2         142.8363 124.6760 190.0802 C.ar           1 RES1               0.0000
      3 C3         143.3039 127.0803 190.2518 C.2            1 RES1               0.0000
      4 C4         143.6325 125.8088 188.0548 C.2            1 RES1               0.0000
      5 C5         141.3553 126.4052 188.8496 C.3            1 RES1               0.0000
      6 C6         142.3042 123.5123 189.5330 C.ar           1 RES1               0.0000
      7 C7         143.4191 124.5959 191.3421 C.ar           1 RES1               0.0000
      8 N8         144.5518 127.5772 190.0157 N.am           1 RES1               0.0000
      9 O9         142.6487 127.4565 191.2158 O.2            1 RES1               0.0000
     10 N10        144.7783 126.5510 187.9359 N.am           1 RES1               0.0000
     11 O11        143.3317 125.0046 187.1812 O.2            1 RES1               0.0000
     12 C12        141.2923 127.7449 188.1331 C.3            1 RES1               0.0000
     13 C13        142.3555 122.3114 190.2211 C.ar           1 RES1               0.0000
     14 C14        143.4692 123.3939 192.0286 C.ar           1 RES1               0.0000
     15 C15        145.2925 127.4038 188.8742 C.2            1 RES1               0.0000
     16 C16        142.9383 122.2512 191.4690 C.ar           1 RES1               0.0000
     17 O17        146.3573 127.9946 188.7176 O.2            1 RES1               0.0000
     18 H18        140.9675 125.6278 188.1798 H              1 RES1               0.0000
     19 H19        140.7027 126.4449 189.7305 H              1 RES1               0.0000
     20 H20        141.8394 123.5407 188.5531 H              1 RES1               0.0000
     21 H21        143.8422 125.4823 191.8024 H              1 RES1               0.0000
     22 H22        144.9732 128.1287 190.7564 H              1 RES1               0.0000
     23 H23        145.2957 126.4593 187.0675 H              1 RES1               0.0000
     24 H24        140.2712 127.9761 187.8369 H              1 RES1               0.0000
     25 H25        141.6471 128.5450 188.7793 H              1 RES1               0.0000
     26 H26        141.9104 127.7329 187.2378 H              1 RES1               0.0000
     27 H27        141.9351 121.4152 189.7768 H              1 RES1               0.0000
     28 H28        143.9282 123.3514 193.0108 H              1 RES1               0.0000
     29 H29        142.9787 121.3102 192.0076 H              1 RES1               0.0000
@<TRIPOS>BOND
    1    1    2 1     
    2    1    3 1     
    3    1    4 1     
    4    1    5 1     
    5    2    6 ar    
    6    2    7 ar    
    7    3    8 1     
    8    3    9 2     
    9    4   10 1     
   10    4   11 2     
   11    5   12 1     
   12    5   18 1     
   13    5   19 1     
   14    6   13 ar    
   15    6   20 1     
   16    7   14 ar    
   17    7   21 1     
   18    8   15 1     
   19    8   22 1     
   20   10   15 1     
   21   10   23 1     
   22   12   24 1     
   23   12   25 1     
   24   12   26 1     
   25   13   16 ar    
   26   13   27 1     
   27   14   16 ar    
   28   14   28 1     
   29   15   17 2     
   30   16   29 1     
@<TRIPOS>SUBSTRUCTURE
      1 RES1           1
@<TRIPOS>SET
DONOR_HYDROGENS      STATIC     ATOMS    <user>   **** ""
2 22 23
ATOM$RED        STATIC     ATOMS    COLORGROUP SYSTEM
2 22 23
@<TRIPOS>COMMENT
> <Gold.Version>
2022.3.0

> <Gold.Id.Protein>
unknown|7rmh_cavity_clean|pdb

> <Gold.Protein.RotatedTorsions>
[ 10338 10331 10329 10326 ] final  -92.54 input   60.01 | X-H torsion
[ 10390 10381 10380 10378 ] final   60.62 input   59.98 | X-H torsion
[ 10359 10350 10349 10347 ] final  101.23 input   59.97 | X-H torsion

> <Gold.Protein.ActiveResidues>
 ARG228  GLU230  ARG232  MET188  LEU190  ALA208  THR114  TYR115  ALA116  TYR117 
 ARG118  GLY119  GLN120 

> <Gold.Protein.RotatedAtoms>
  147.0517  128.1988  186.4212 H   0  0  0  0  0  0  0  0  0  0  0  0  # atno 10338 bound_to 10331
  136.3721  127.8281  178.3895 H   0  0  0  0  0  0  0  0  0  0  0  0  # atno 10359 bound_to 10350
  136.8145  135.9367  181.1948 H   0  0  0  0  0  0  0  0  0  0  0  0  # atno 10390 bound_to 10381
  147.9596  128.6334  185.1428 LP  0  0  0  0  0  0  0  0  0  0  0  0  # atno 14712 bound_to 10331
  147.1658  127.2063  185.1369 LP  0  0  0  0  0  0  0  0  0  0  0  0  # atno 14713 bound_to 10331
  135.3590  135.9417  180.4673 LP  0  0  0  0  0  0  0  0  0  0  0  0  # atno 14720 bound_to 10381
  136.6791  135.4268  179.6556 LP  0  0  0  0  0  0  0  0  0  0  0  0  # atno 14721 bound_to 10381
  136.8109  129.3920  178.4950 LP  0  0  0  0  0  0  0  0  0  0  0  0  # atno 14734 bound_to 10350
  135.6912  128.7846  179.5167 LP  0  0  0  0  0  0  0  0  0  0  0  0  # atno 14735 bound_to 10350

> <Gold.Score>
     Fitness  S(hb_ext) S(vdw_ext)  S(hb_int)    S(int)      intcor
     14.81       4.31       9.08       0.00      -1.99      -0.78

> <Gold.Goldscore.Fitness>
14.8145

> <Gold.Goldscore.Internal.Vdw>
-2.3861

> <Gold.Goldscore.Internal.Torsion>
-0.3776

> <Gold.Goldscore.External.Vdw>
9.0836

> <Gold.Goldscore.Internal.HBond>
0.0000

> <Gold.Goldscore.External.HBond>
4.3129

> <Gold.Goldscore.Internal.Correction>
-0.7752

> <Gold.Goldscore.Hbonds>
donor molecule, donor type, donor heavy atom, donor atom, acceptor molecule, acceptor atom, score
      P1  H 10331 10338       L1    17  0.70
      P1  H 10401 10414       L1    11  0.49

> <Gold.Goldscore.Internal.Vdw.Weighted>
-2.3861

> <Gold.Goldscore.Internal.Torsion.Weighted>
-0.3776

> <Gold.Goldscore.External.Vdw.Weighted>
12.4900

> <Gold.Goldscore.Internal.HBond.Weighted>
0.0000

> <Gold.Goldscore.External.HBond.Weighted>
4.3129

> <Gold.Goldscore.Internal.Correction.Weighted>
-0.7752

> <Gold.Rescore>
     Score     S(PLP)   S(hbond)     S(cho)   S(metal)  DE(clash)   DE(tors)     intcor
     19.99     -15.32       2.06       0.00       0.00       1.38       0.07       ----

> <Gold.PLP.Fitness>
19.9908

> <Gold.PLP.PLP>
-15.3195

> <Gold.PLP.part.hbond>
-3.6558

> <Gold.PLP.part.metal>
0.0000

> <Gold.PLP.part.buried>
0.0858

> <Gold.PLP.part.nonpolar>
-12.2869

> <Gold.PLP.part.repulsive>
0.2935

> <Gold.PLP.ligand.clash>
1.3759

> <Gold.PLP.ligand.torsion>
0.0721

> <Gold.PLP.Chemscore.Hbond>
2.0638

> <Gold.PLP.Chemscore.CHOScore>
0.0000

> <Gold.PLP.Chemscore.Metal>
0.0000

> <Gold.Chemscore.Hbonds>
donor molecule, donor type, donor heavy atom, donor atom, acceptor molecule, acceptor atom, score
      P1  H 10331 10338       L1    17  0.23
      P1  H 10401 10414       L1    11  1.00

> <Gold.PLP.Chemscore.Internal.Correction>
   9.000000E+99

#       Name:                CT1002167954
#       Creating user name   hitesit
#       Creation time:       Sun Apr 16 23:04:54 2023


#       File generated by GOLD software.
#

@<TRIPOS>MOLECULE
CT1002167954|ligand_prepared|mol2|1|dock3
    29    30     1
SMALL
NO_CHARGES


@<TRIPOS>ATOM
      1 C1         144.4081 124.8714 189.0386 C.3            1 RES1               0.0000
      2 C2         144.7890 125.4075 190.4337 C.ar           1 RES1               0.0000
      3 C3         143.1160 124.0806 189.2216 C.2            1 RES1               0.0000
      4 C4         144.2678 126.0922 188.1361 C.2            1 RES1               0.0000
      5 C5         145.4719 123.9371 188.4165 C.3            1 RES1               0.0000
      6 C6         145.4076 124.5801 191.3662 C.ar           1 RES1               0.0000
      7 C7         144.5310 126.7254 190.8012 C.ar           1 RES1               0.0000
      8 N8         141.9606 124.6438 188.7659 N.am           1 RES1               0.0000
      9 O9         143.1055 122.9969 189.7924 O.2            1 RES1               0.0000
     10 N10        143.0251 126.3820 187.6366 N.am           1 RES1               0.0000
     11 O11        145.2189 126.8154 187.8666 O.2            1 RES1               0.0000
     12 C12        146.8883 124.4851 188.4915 C.3            1 RES1               0.0000
     13 C13        145.7583 125.0538 192.6195 C.ar           1 RES1               0.0000
     14 C14        144.8824 127.1971 192.0552 C.ar           1 RES1               0.0000
     15 C15        141.8593 125.7309 187.9354 C.2            1 RES1               0.0000
     16 C16        145.4964 126.3626 192.9647 C.ar           1 RES1               0.0000
     17 O17        140.7717 126.0845 187.4892 O.2            1 RES1               0.0000
     18 H18        145.4393 122.9706 188.9343 H              1 RES1               0.0000
     19 H19        145.2162 123.7624 187.3641 H              1 RES1               0.0000
     20 H20        145.6194 123.5465 191.1133 H              1 RES1               0.0000
     21 H21        144.0479 127.3997 190.1022 H              1 RES1               0.0000
     22 H22        141.0915 124.2174 189.0710 H              1 RES1               0.0000
     23 H23        142.9634 127.1547 186.9812 H              1 RES1               0.0000
     24 H24        147.5948 123.7909 188.0411 H              1 RES1               0.0000
     25 H25        146.9632 125.4341 187.9647 H              1 RES1               0.0000
     26 H26        147.1849 124.6471 189.5257 H              1 RES1               0.0000
     27 H27        146.2401 124.3926 193.3322 H              1 RES1               0.0000
     28 H28        144.6738 128.2277 192.3228 H              1 RES1               0.0000
     29 H29        145.7716 126.7335 193.9465 H              1 RES1               0.0000
@<TRIPOS>BOND
    1    1    2 1     
    2    1    3 1     
    3    1    4 1     
    4    1    5 1     
    5    2    6 ar    
    6    2    7 ar    
    7    3    8 1     
    8    3    9 2     
    9    4   10 1     
   10    4   11 2     
   11    5   12 1     
   12    5   18 1     
   13    5   19 1     
   14    6   13 ar    
   15    6   20 1     
   16    7   14 ar    
   17    7   21 1     
   18    8   15 1     
   19    8   22 1     
   20   10   15 1     
   21   10   23 1     
   22   12   24 1     
   23   12   25 1     
   24   12   26 1     
   25   13   16 ar    
   26   13   27 1     
   27   14   16 ar    
   28   14   28 1     
   29   15   17 2     
   30   16   29 1     
@<TRIPOS>SUBSTRUCTURE
      1 RES1           1
@<TRIPOS>SET
DONOR_HYDROGENS      STATIC     ATOMS    <user>   **** ""
2 22 23
ATOM$RED        STATIC     ATOMS    COLORGROUP SYSTEM
2 22 23
@<TRIPOS>COMMENT
> <Gold.Version>
2022.3.0

> <Gold.Id.Protein>
unknown|7rmh_cavity_clean|pdb

> <Gold.Protein.RotatedTorsions>
[ 10338 10331 10329 10326 ] final  -49.89 input   60.01 | X-H torsion
[ 10390 10381 10380 10378 ] final  -95.82 input   59.98 | X-H torsion
[ 10359 10350 10349 10347 ] final  -22.89 input   59.97 | X-H torsion

> <Gold.Protein.ActiveResidues>
 ARG228  GLU230  ARG232  MET188  LEU190  ALA208  THR114  TYR115  ALA116  TYR117 
 ARG118  GLY119  GLN120 

> <Gold.Protein.RotatedAtoms>
  146.8330  127.5957  186.1933 H   0  0  0  0  0  0  0  0  0  0  0  0  # atno 10338 bound_to 10331
  136.7798  129.4245  178.5458 H   0  0  0  0  0  0  0  0  0  0  0  0  # atno 10359 bound_to 10350
  135.4975  135.7300  179.9371 H   0  0  0  0  0  0  0  0  0  0  0  0  # atno 10390 bound_to 10381
  147.7647  128.8576  185.7608 LP  0  0  0  0  0  0  0  0  0  0  0  0  # atno 14712 bound_to 10331
  147.5810  127.5896  184.7484 LP  0  0  0  0  0  0  0  0  0  0  0  0  # atno 14713 bound_to 10331
  137.1027  135.4933  180.0602 LP  0  0  0  0  0  0  0  0  0  0  0  0  # atno 14720 bound_to 10381
  136.2618  136.0834  181.3295 LP  0  0  0  0  0  0  0  0  0  0  0  0  # atno 14721 bound_to 10381
  135.6745  128.7192  179.5103 LP  0  0  0  0  0  0  0  0  0  0  0  0  # atno 14734 bound_to 10350
  136.4172  127.8506  178.3440 LP  0  0  0  0  0  0  0  0  0  0  0  0  # atno 14735 bound_to 10350

> <Gold.Score>
     Fitness  S(hb_ext) S(vdw_ext)  S(hb_int)    S(int)      intcor
     11.63       0.88      10.00       0.00      -3.00      -0.78

> <Gold.Goldscore.Fitness>
11.6278

> <Gold.Goldscore.Internal.Vdw>
-3.1818

> <Gold.Goldscore.Internal.Torsion>
-0.5954

> <Gold.Goldscore.External.Vdw>
9.9974

> <Gold.Goldscore.Internal.HBond>
0.0000

> <Gold.Goldscore.External.HBond>
0.8766

> <Gold.Goldscore.Internal.Correction>
-0.7819

> <Gold.Goldscore.Hbonds>
donor molecule, donor type, donor heavy atom, donor atom, acceptor molecule, acceptor atom, score
      P1  H 10331 10338       L1    11  0.39
      P1  H 10398 10410       L1    17  0.02

> <Gold.Goldscore.Internal.Vdw.Weighted>
-3.1818

> <Gold.Goldscore.Internal.Torsion.Weighted>
-0.5954

> <Gold.Goldscore.External.Vdw.Weighted>
13.7464

> <Gold.Goldscore.Internal.HBond.Weighted>
0.0000

> <Gold.Goldscore.External.HBond.Weighted>
0.8766

> <Gold.Goldscore.Internal.Correction.Weighted>
-0.7819

> <Gold.Rescore>
     Score     S(PLP)   S(hbond)     S(cho)   S(metal)  DE(clash)   DE(tors)     intcor
     11.95     -10.85       0.93       0.00       0.00       0.00       0.84       ----

> <Gold.PLP.Fitness>
11.9543

> <Gold.PLP.PLP>
-10.8504

> <Gold.PLP.part.hbond>
-1.0000

> <Gold.PLP.part.metal>
0.0000

> <Gold.PLP.part.buried>
-3.3733

> <Gold.PLP.part.nonpolar>
-6.6914

> <Gold.PLP.part.repulsive>
0.3224

> <Gold.PLP.ligand.clash>
0.0000

> <Gold.PLP.ligand.torsion>
0.8401

> <Gold.PLP.Chemscore.Hbond>
0.9280

> <Gold.PLP.Chemscore.CHOScore>
0.0000

> <Gold.PLP.Chemscore.Metal>
0.0000

> <Gold.Chemscore.Hbonds>
donor molecule, donor type, donor heavy atom, donor atom, acceptor molecule, acceptor atom, score
      P1  H 10331 10338       L1    11  0.11
      P1  H 10398 10410       L1    17  0.52

> <Gold.PLP.Chemscore.Internal.Correction>
   9.000000E+99

