#       Name:                CT1002167954
#       Creating user name   hitesit
#       Creation time:       Sun Apr 16 23:04:55 2023


#       File generated by GOLD software.
#

@<TRIPOS>MOLECULE
CT1002167954|ligand_prepared|mol2|1|dock6
    29    30     1
SMALL
NO_CHARGES


@<TRIPOS>ATOM
      1 C1         143.7538 125.2704 189.1840 C.3            1 RES1               0.0000
      2 C2         144.6171 124.2274 188.4454 C.ar           1 RES1               0.0000
      3 C3         143.1252 126.1475 188.1052 C.2            1 RES1               0.0000
      4 C4         142.7444 124.4808 190.0101 C.2            1 RES1               0.0000
      5 C5         144.5558 126.1758 190.1475 C.3            1 RES1               0.0000
      6 C6         145.9914 124.4065 188.3190 C.ar           1 RES1               0.0000
      7 C7         144.0550 123.0817 187.8885 C.ar           1 RES1               0.0000
      8 N8         141.7977 125.9750 187.8447 N.am           1 RES1               0.0000
      9 O9         143.7929 126.9506 187.4653 O.2            1 RES1               0.0000
     10 N10        141.4189 124.5902 189.6802 N.am           1 RES1               0.0000
     11 O11        143.0865 123.7520 190.9331 O.2            1 RES1               0.0000
     12 C12        143.6848 126.9946 191.0872 C.3            1 RES1               0.0000
     13 C13        146.7758 123.4729 187.6623 C.ar           1 RES1               0.0000
     14 C14        144.8412 122.1493 187.2320 C.ar           1 RES1               0.0000
     15 C15        140.9027 125.2775 188.6155 C.2            1 RES1               0.0000
     16 C16        146.2015 122.3435 187.1188 C.ar           1 RES1               0.0000
     17 O17        139.7037 125.2842 188.3517 O.2            1 RES1               0.0000
     18 H18        145.2271 125.5475 190.7459 H              1 RES1               0.0000
     19 H19        145.1761 126.8598 189.5552 H              1 RES1               0.0000
     20 H20        146.4608 125.2903 188.7381 H              1 RES1               0.0000
     21 H21        142.9869 122.9086 187.9645 H              1 RES1               0.0000
     22 H22        141.4371 126.4042 186.9985 H              1 RES1               0.0000
     23 H23        140.7556 124.1155 190.2843 H              1 RES1               0.0000
     24 H24        144.2971 127.6118 191.7412 H              1 RES1               0.0000
     25 H25        143.0218 127.6498 190.5260 H              1 RES1               0.0000
     26 H26        143.0725 126.3453 191.7096 H              1 RES1               0.0000
     27 H27        147.8457 123.6310 187.5747 H              1 RES1               0.0000
     28 H28        144.3848 121.2623 186.8053 H              1 RES1               0.0000
     29 H29        146.8162 121.6121 186.6048 H              1 RES1               0.0000
@<TRIPOS>BOND
    1    1    2 1     
    2    1    3 1     
    3    1    4 1     
    4    1    5 1     
    5    2    6 ar    
    6    2    7 ar    
    7    3    8 1     
    8    3    9 2     
    9    4   10 1     
   10    4   11 2     
   11    5   12 1     
   12    5   18 1     
   13    5   19 1     
   14    6   13 ar    
   15    6   20 1     
   16    7   14 ar    
   17    7   21 1     
   18    8   15 1     
   19    8   22 1     
   20   10   15 1     
   21   10   23 1     
   22   12   24 1     
   23   12   25 1     
   24   12   26 1     
   25   13   16 ar    
   26   13   27 1     
   27   14   16 ar    
   28   14   28 1     
   29   15   17 2     
   30   16   29 1     
@<TRIPOS>SUBSTRUCTURE
      1 RES1           1
@<TRIPOS>SET
DONOR_HYDROGENS      STATIC     ATOMS    <user>   **** ""
2 22 23
ATOM$RED        STATIC     ATOMS    COLORGROUP SYSTEM
2 22 23
@<TRIPOS>COMMENT
> <Gold.Version>
2022.3.0

> <Gold.Id.Protein>
unknown|7rmh_cavity_clean|pdb

> <Gold.Protein.RotatedTorsions>
[ 10338 10331 10329 10326 ] final  -76.40 input   60.01 | X-H torsion
[ 10390 10381 10380 10378 ] final  -28.04 input   59.98 | X-H torsion
[ 10359 10350 10349 10347 ] final   89.30 input   59.97 | X-H torsion

> <Gold.Protein.ActiveResidues>
 ARG228  GLU230  ARG232  MET188  LEU190  ALA208  THR114  TYR115  ALA116  TYR117 
 ARG118  GLY119  GLN120 

> <Gold.Protein.RotatedAtoms>
  146.9385  127.9640  186.3866 H   0  0  0  0  0  0  0  0  0  0  0  0  # atno 10338 bound_to 10331
  136.5032  127.9183  178.2772 H   0  0  0  0  0  0  0  0  0  0  0  0  # atno 10359 bound_to 10350
  135.5411  136.0663  180.9244 H   0  0  0  0  0  0  0  0  0  0  0  0  # atno 10390 bound_to 10381
  147.9188  128.7683  185.3670 LP  0  0  0  0  0  0  0  0  0  0  0  0  # atno 14712 bound_to 10331
  147.3206  127.3079  184.9475 LP  0  0  0  0  0  0  0  0  0  0  0  0  # atno 14713 bound_to 10331
  136.1833  135.4772  179.5503 LP  0  0  0  0  0  0  0  0  0  0  0  0  # atno 14720 bound_to 10381
  137.1373  135.7607  180.8450 LP  0  0  0  0  0  0  0  0  0  0  0  0  # atno 14721 bound_to 10381
  136.7185  129.4911  178.6366 LP  0  0  0  0  0  0  0  0  0  0  0  0  # atno 14734 bound_to 10350
  135.6516  128.5948  179.4881 LP  0  0  0  0  0  0  0  0  0  0  0  0  # atno 14735 bound_to 10350

> <Gold.Score>
     Fitness  S(hb_ext) S(vdw_ext)  S(hb_int)    S(int)      intcor
     17.53       0.55      12.74       0.00      -0.54      -0.78

> <Gold.Goldscore.Fitness>
17.5312

> <Gold.Goldscore.Internal.Vdw>
-0.7134

> <Gold.Goldscore.Internal.Torsion>
-0.5977

> <Gold.Goldscore.External.Vdw>
12.7399

> <Gold.Goldscore.Internal.HBond>
0.0000

> <Gold.Goldscore.External.HBond>
0.5496

> <Gold.Goldscore.Internal.Correction>
-0.7752

> <Gold.Goldscore.Hbonds>
donor molecule, donor type, donor heavy atom, donor atom, acceptor molecule, acceptor atom, score
      P1  H 10398 10410       L1    17  0.07
      L1  H     8    22       P1 10342  0.06

> <Gold.Goldscore.Internal.Vdw.Weighted>
-0.7134

> <Gold.Goldscore.Internal.Torsion.Weighted>
-0.5977

> <Gold.Goldscore.External.Vdw.Weighted>
17.5174

> <Gold.Goldscore.Internal.HBond.Weighted>
0.0000

> <Gold.Goldscore.External.HBond.Weighted>
0.5496

> <Gold.Goldscore.Internal.Correction.Weighted>
-0.7752

> <Gold.Rescore>
     Score     S(PLP)   S(hbond)     S(cho)   S(metal)  DE(clash)   DE(tors)     intcor
     13.38     -11.33       1.00       0.00       0.00       0.00       0.48       ----

> <Gold.PLP.Fitness>
13.3810

> <Gold.PLP.PLP>
-11.3344

> <Gold.PLP.part.hbond>
-1.0000

> <Gold.PLP.part.metal>
0.0000

> <Gold.PLP.part.buried>
-3.7251

> <Gold.PLP.part.nonpolar>
-7.2548

> <Gold.PLP.part.repulsive>
0.3663

> <Gold.PLP.ligand.clash>
0.0000

> <Gold.PLP.ligand.torsion>
0.4767

> <Gold.PLP.Chemscore.Hbond>
1.0000

> <Gold.PLP.Chemscore.CHOScore>
0.0000

> <Gold.PLP.Chemscore.Metal>
0.0000

> <Gold.Chemscore.Hbonds>
donor molecule, donor type, donor heavy atom, donor atom, acceptor molecule, acceptor atom, score
      P1  H 10398 10410       L1    17  0.26

> <Gold.PLP.Chemscore.Internal.Correction>
   9.000000E+99

