#       Name:                CT1002167954
#       Creating user name   hitesit
#       Creation time:       Sun Apr 16 23:04:54 2023


#       File generated by GOLD software.
#

@<TRIPOS>MOLECULE
CT1002167954|ligand_prepared|mol2|1|dock3
    29    30     1
SMALL
NO_CHARGES


@<TRIPOS>ATOM
      1 C1         144.4081 124.8714 189.0386 C.3            1 RES1               0.0000
      2 C2         144.7890 125.4075 190.4337 C.ar           1 RES1               0.0000
      3 C3         143.1160 124.0806 189.2216 C.2            1 RES1               0.0000
      4 C4         144.2678 126.0922 188.1361 C.2            1 RES1               0.0000
      5 C5         145.4719 123.9371 188.4165 C.3            1 RES1               0.0000
      6 C6         145.4076 124.5801 191.3662 C.ar           1 RES1               0.0000
      7 C7         144.5310 126.7254 190.8012 C.ar           1 RES1               0.0000
      8 N8         141.9606 124.6438 188.7659 N.am           1 RES1               0.0000
      9 O9         143.1055 122.9969 189.7924 O.2            1 RES1               0.0000
     10 N10        143.0251 126.3820 187.6366 N.am           1 RES1               0.0000
     11 O11        145.2189 126.8154 187.8666 O.2            1 RES1               0.0000
     12 C12        146.8883 124.4851 188.4915 C.3            1 RES1               0.0000
     13 C13        145.7583 125.0538 192.6195 C.ar           1 RES1               0.0000
     14 C14        144.8824 127.1971 192.0552 C.ar           1 RES1               0.0000
     15 C15        141.8593 125.7309 187.9354 C.2            1 RES1               0.0000
     16 C16        145.4964 126.3626 192.9647 C.ar           1 RES1               0.0000
     17 O17        140.7717 126.0845 187.4892 O.2            1 RES1               0.0000
     18 H18        145.4393 122.9706 188.9343 H              1 RES1               0.0000
     19 H19        145.2162 123.7624 187.3641 H              1 RES1               0.0000
     20 H20        145.6194 123.5465 191.1133 H              1 RES1               0.0000
     21 H21        144.0479 127.3997 190.1022 H              1 RES1               0.0000
     22 H22        141.0915 124.2174 189.0710 H              1 RES1               0.0000
     23 H23        142.9634 127.1547 186.9812 H              1 RES1               0.0000
     24 H24        147.5948 123.7909 188.0411 H              1 RES1               0.0000
     25 H25        146.9632 125.4341 187.9647 H              1 RES1               0.0000
     26 H26        147.1849 124.6471 189.5257 H              1 RES1               0.0000
     27 H27        146.2401 124.3926 193.3322 H              1 RES1               0.0000
     28 H28        144.6738 128.2277 192.3228 H              1 RES1               0.0000
     29 H29        145.7716 126.7335 193.9465 H              1 RES1               0.0000
@<TRIPOS>BOND
    1    1    2 1     
    2    1    3 1     
    3    1    4 1     
    4    1    5 1     
    5    2    6 ar    
    6    2    7 ar    
    7    3    8 1     
    8    3    9 2     
    9    4   10 1     
   10    4   11 2     
   11    5   12 1     
   12    5   18 1     
   13    5   19 1     
   14    6   13 ar    
   15    6   20 1     
   16    7   14 ar    
   17    7   21 1     
   18    8   15 1     
   19    8   22 1     
   20   10   15 1     
   21   10   23 1     
   22   12   24 1     
   23   12   25 1     
   24   12   26 1     
   25   13   16 ar    
   26   13   27 1     
   27   14   16 ar    
   28   14   28 1     
   29   15   17 2     
   30   16   29 1     
@<TRIPOS>SUBSTRUCTURE
      1 RES1           1
@<TRIPOS>SET
DONOR_HYDROGENS      STATIC     ATOMS    <user>   **** ""
2 22 23
ATOM$RED        STATIC     ATOMS    COLORGROUP SYSTEM
2 22 23
@<TRIPOS>COMMENT
> <Gold.Version>
2022.3.0

> <Gold.Id.Protein>
unknown|7rmh_cavity_clean|pdb

> <Gold.Protein.RotatedTorsions>
[ 10338 10331 10329 10326 ] final  -49.89 input   60.01 | X-H torsion
[ 10390 10381 10380 10378 ] final  -95.82 input   59.98 | X-H torsion
[ 10359 10350 10349 10347 ] final  -22.89 input   59.97 | X-H torsion

> <Gold.Protein.ActiveResidues>
 ARG228  GLU230  ARG232  MET188  LEU190  ALA208  THR114  TYR115  ALA116  TYR117 
 ARG118  GLY119  GLN120 

> <Gold.Protein.RotatedAtoms>
  146.8330  127.5957  186.1933 H   0  0  0  0  0  0  0  0  0  0  0  0  # atno 10338 bound_to 10331
  136.7798  129.4245  178.5458 H   0  0  0  0  0  0  0  0  0  0  0  0  # atno 10359 bound_to 10350
  135.4975  135.7300  179.9371 H   0  0  0  0  0  0  0  0  0  0  0  0  # atno 10390 bound_to 10381
  147.7647  128.8576  185.7608 LP  0  0  0  0  0  0  0  0  0  0  0  0  # atno 14712 bound_to 10331
  147.5810  127.5896  184.7484 LP  0  0  0  0  0  0  0  0  0  0  0  0  # atno 14713 bound_to 10331
  137.1027  135.4933  180.0602 LP  0  0  0  0  0  0  0  0  0  0  0  0  # atno 14720 bound_to 10381
  136.2618  136.0834  181.3295 LP  0  0  0  0  0  0  0  0  0  0  0  0  # atno 14721 bound_to 10381
  135.6745  128.7192  179.5103 LP  0  0  0  0  0  0  0  0  0  0  0  0  # atno 14734 bound_to 10350
  136.4172  127.8506  178.3440 LP  0  0  0  0  0  0  0  0  0  0  0  0  # atno 14735 bound_to 10350

> <Gold.Score>
     Fitness  S(hb_ext) S(vdw_ext)  S(hb_int)    S(int)      intcor
     11.63       0.88      10.00       0.00      -3.00      -0.78

> <Gold.Goldscore.Fitness>
11.6278

> <Gold.Goldscore.Internal.Vdw>
-3.1818

> <Gold.Goldscore.Internal.Torsion>
-0.5954

> <Gold.Goldscore.External.Vdw>
9.9974

> <Gold.Goldscore.Internal.HBond>
0.0000

> <Gold.Goldscore.External.HBond>
0.8766

> <Gold.Goldscore.Internal.Correction>
-0.7819

> <Gold.Goldscore.Hbonds>
donor molecule, donor type, donor heavy atom, donor atom, acceptor molecule, acceptor atom, score
      P1  H 10331 10338       L1    11  0.39
      P1  H 10398 10410       L1    17  0.02

> <Gold.Goldscore.Internal.Vdw.Weighted>
-3.1818

> <Gold.Goldscore.Internal.Torsion.Weighted>
-0.5954

> <Gold.Goldscore.External.Vdw.Weighted>
13.7464

> <Gold.Goldscore.Internal.HBond.Weighted>
0.0000

> <Gold.Goldscore.External.HBond.Weighted>
0.8766

> <Gold.Goldscore.Internal.Correction.Weighted>
-0.7819

> <Gold.Rescore>
     Score     S(PLP)   S(hbond)     S(cho)   S(metal)  DE(clash)   DE(tors)     intcor
     11.95     -10.85       0.93       0.00       0.00       0.00       0.84       ----

> <Gold.PLP.Fitness>
11.9543

> <Gold.PLP.PLP>
-10.8504

> <Gold.PLP.part.hbond>
-1.0000

> <Gold.PLP.part.metal>
0.0000

> <Gold.PLP.part.buried>
-3.3733

> <Gold.PLP.part.nonpolar>
-6.6914

> <Gold.PLP.part.repulsive>
0.3224

> <Gold.PLP.ligand.clash>
0.0000

> <Gold.PLP.ligand.torsion>
0.8401

> <Gold.PLP.Chemscore.Hbond>
0.9280

> <Gold.PLP.Chemscore.CHOScore>
0.0000

> <Gold.PLP.Chemscore.Metal>
0.0000

> <Gold.Chemscore.Hbonds>
donor molecule, donor type, donor heavy atom, donor atom, acceptor molecule, acceptor atom, score
      P1  H 10331 10338       L1    11  0.11
      P1  H 10398 10410       L1    17  0.52

> <Gold.PLP.Chemscore.Internal.Correction>
   9.000000E+99

