#       Name:                CT1002167954
#       Creating user name   hitesit
#       Creation time:       Sun Apr 16 23:04:56 2023


#       File generated by GOLD software.
#

@<TRIPOS>MOLECULE
CT1002167954|ligand_prepared|mol2|1|dock9
    29    30     1
SMALL
NO_CHARGES


@<TRIPOS>ATOM
      1 C1         142.9618 122.7797 188.9007 C.3            1 RES1               0.0000
      2 C2         142.0752 122.5367 190.1391 C.ar           1 RES1               0.0000
      3 C3         142.4457 124.0591 188.2487 C.2            1 RES1               0.0000
      4 C4         144.3942 122.8771 189.4140 C.2            1 RES1               0.0000
      5 C5         142.9046 121.6393 187.8578 C.3            1 RES1               0.0000
      6 C6         142.2057 121.3697 190.8861 C.ar           1 RES1               0.0000
      7 C7         141.1259 123.4696 190.5478 C.ar           1 RES1               0.0000
      8 N8         143.2003 125.1868 188.3855 N.am           1 RES1               0.0000
      9 O9         141.3734 124.0872 187.6573 O.2            1 RES1               0.0000
     10 N10        145.0393 124.0799 189.2925 N.am           1 RES1               0.0000
     11 O11        144.9641 121.9278 189.9377 O.2            1 RES1               0.0000
     12 C12        144.0977 121.6096 186.9157 C.3            1 RES1               0.0000
     13 C13        141.4180 121.1449 192.0029 C.ar           1 RES1               0.0000
     14 C14        140.3389 123.2427 191.6648 C.ar           1 RES1               0.0000
     15 C15        144.4968 125.2476 188.8295 C.2            1 RES1               0.0000
     16 C16        140.4845 122.0812 192.3932 C.ar           1 RES1               0.0000
     17 O17        145.1241 126.3025 188.8015 O.2            1 RES1               0.0000
     18 H18        142.8481 120.6798 188.3865 H              1 RES1               0.0000
     19 H19        141.9887 121.7493 187.2641 H              1 RES1               0.0000
     20 H20        142.9333 120.6203 190.5928 H              1 RES1               0.0000
     21 H21        140.9933 124.3900 189.9893 H              1 RES1               0.0000
     22 H22        142.7599 126.0662 188.1346 H              1 RES1               0.0000
     23 H23        146.0144 124.1073 189.5732 H              1 RES1               0.0000
     24 H24        144.0075 120.7910 186.2047 H              1 RES1               0.0000
     25 H25        144.1697 122.5391 186.3549 H              1 RES1               0.0000
     26 H26        145.0241 121.4759 187.4706 H              1 RES1               0.0000
     27 H27        141.5354 120.2286 192.5719 H              1 RES1               0.0000
     28 H28        139.6051 123.9821 191.9680 H              1 RES1               0.0000
     29 H29        139.8677 121.9051 193.2683 H              1 RES1               0.0000
@<TRIPOS>BOND
    1    1    2 1     
    2    1    3 1     
    3    1    4 1     
    4    1    5 1     
    5    2    6 ar    
    6    2    7 ar    
    7    3    8 1     
    8    3    9 2     
    9    4   10 1     
   10    4   11 2     
   11    5   12 1     
   12    5   18 1     
   13    5   19 1     
   14    6   13 ar    
   15    6   20 1     
   16    7   14 ar    
   17    7   21 1     
   18    8   15 1     
   19    8   22 1     
   20   10   15 1     
   21   10   23 1     
   22   12   24 1     
   23   12   25 1     
   24   12   26 1     
   25   13   16 ar    
   26   13   27 1     
   27   14   16 ar    
   28   14   28 1     
   29   15   17 2     
   30   16   29 1     
@<TRIPOS>SUBSTRUCTURE
      1 RES1           1
@<TRIPOS>SET
DONOR_HYDROGENS      STATIC     ATOMS    <user>   **** ""
2 22 23
ATOM$RED        STATIC     ATOMS    COLORGROUP SYSTEM
2 22 23
@<TRIPOS>COMMENT
> <Gold.Version>
2022.3.0

> <Gold.Id.Protein>
unknown|7rmh_cavity_clean|pdb

> <Gold.Protein.RotatedTorsions>
[ 10338 10331 10329 10326 ] final  -46.75 input   60.01 | X-H torsion
[ 10390 10381 10380 10378 ] final   12.22 input   59.98 | X-H torsion
[ 10359 10350 10349 10347 ] final  138.01 input   59.97 | X-H torsion

> <Gold.Protein.ActiveResidues>
 ARG228  GLU230  ARG232  MET188  LEU190  ALA208  THR114  TYR115  ALA116  TYR117 
 ARG118  GLY119  GLN120 

> <Gold.Protein.RotatedAtoms>
  146.8281  127.5566  186.1606 H   0  0  0  0  0  0  0  0  0  0  0  0  # atno 10338 bound_to 10331
  135.9718  127.7863  178.8222 H   0  0  0  0  0  0  0  0  0  0  0  0  # atno 10359 bound_to 10350
  136.0709  136.1005  181.2897 H   0  0  0  0  0  0  0  0  0  0  0  0  # atno 10390 bound_to 10381
  147.7404  128.8564  185.8064 LP  0  0  0  0  0  0  0  0  0  0  0  0  # atno 14712 bound_to 10331
  147.6103  127.6302  184.7358 LP  0  0  0  0  0  0  0  0  0  0  0  0  # atno 14713 bound_to 10331
  135.6101  135.6622  179.7919 LP  0  0  0  0  0  0  0  0  0  0  0  0  # atno 14720 bound_to 10381
  137.1770  135.5413  180.2354 LP  0  0  0  0  0  0  0  0  0  0  0  0  # atno 14721 bound_to 10381
  136.9424  128.9153  178.1644 LP  0  0  0  0  0  0  0  0  0  0  0  0  # atno 14734 bound_to 10350
  135.9626  129.3034  179.4118 LP  0  0  0  0  0  0  0  0  0  0  0  0  # atno 14735 bound_to 10350

> <Gold.Score>
     Fitness  S(hb_ext) S(vdw_ext)  S(hb_int)    S(int)      intcor
     22.04       2.01      18.02       0.00      -4.76      -0.78

> <Gold.Goldscore.Fitness>
22.0423

> <Gold.Goldscore.Internal.Vdw>
-4.5387

> <Gold.Goldscore.Internal.Torsion>
-0.9924

> <Gold.Goldscore.External.Vdw>
18.0242

> <Gold.Goldscore.Internal.HBond>
0.0000

> <Gold.Goldscore.External.HBond>
2.0149

> <Gold.Goldscore.Internal.Correction>
-0.7752

> <Gold.Goldscore.Hbonds>
donor molecule, donor type, donor heavy atom, donor atom, acceptor molecule, acceptor atom, score
      P1  H 10331 10338       L1    17  0.07
      P1  H 10398 10410       L1     9  0.30
      P1  H 10401 10414       L1     9  0.02

> <Gold.Goldscore.Internal.Vdw.Weighted>
-4.5387

> <Gold.Goldscore.Internal.Torsion.Weighted>
-0.9924

> <Gold.Goldscore.External.Vdw.Weighted>
24.7832

> <Gold.Goldscore.Internal.HBond.Weighted>
0.0000

> <Gold.Goldscore.External.HBond.Weighted>
2.0149

> <Gold.Goldscore.Internal.Correction.Weighted>
-0.7752

> <Gold.Rescore>
     Score     S(PLP)   S(hbond)     S(cho)   S(metal)  DE(clash)   DE(tors)     intcor
     23.49     -22.63       1.00       0.00       0.00       1.15       0.50       ----

> <Gold.PLP.Fitness>
23.4944

> <Gold.PLP.PLP>
-22.6343

> <Gold.PLP.part.hbond>
-1.0000

> <Gold.PLP.part.metal>
0.0000

> <Gold.PLP.part.buried>
-5.1404

> <Gold.PLP.part.nonpolar>
-17.3831

> <Gold.PLP.part.repulsive>
0.2800

> <Gold.PLP.ligand.clash>
1.1492

> <Gold.PLP.ligand.torsion>
0.4953

> <Gold.PLP.Chemscore.Hbond>
1.0000

> <Gold.PLP.Chemscore.CHOScore>
0.0000

> <Gold.PLP.Chemscore.Metal>
0.0000

> <Gold.Chemscore.Hbonds>
donor molecule, donor type, donor heavy atom, donor atom, acceptor molecule, acceptor atom, score
      P1  H 10398 10410       L1     9  1.00
      P1  H 10401 10414       L1     9  0.42

> <Gold.PLP.Chemscore.Internal.Correction>
   9.000000E+99

