#       Name:                CT1002167954
#       Creating user name   hitesit
#       Creation time:       Sun Apr 16 23:04:57 2023


#       File generated by GOLD software.
#

@<TRIPOS>MOLECULE
CT1002167954|ligand_prepared|mol2|1|dock10
    29    30     1
SMALL
NO_CHARGES


@<TRIPOS>ATOM
      1 C1         142.7792 126.0068 189.3028 C.3            1 RES1               0.0000
      2 C2         142.8363 124.6760 190.0802 C.ar           1 RES1               0.0000
      3 C3         143.3039 127.0803 190.2518 C.2            1 RES1               0.0000
      4 C4         143.6325 125.8088 188.0548 C.2            1 RES1               0.0000
      5 C5         141.3553 126.4052 188.8496 C.3            1 RES1               0.0000
      6 C6         142.3042 123.5123 189.5330 C.ar           1 RES1               0.0000
      7 C7         143.4191 124.5959 191.3421 C.ar           1 RES1               0.0000
      8 N8         144.5518 127.5772 190.0157 N.am           1 RES1               0.0000
      9 O9         142.6487 127.4565 191.2158 O.2            1 RES1               0.0000
     10 N10        144.7783 126.5510 187.9359 N.am           1 RES1               0.0000
     11 O11        143.3317 125.0046 187.1812 O.2            1 RES1               0.0000
     12 C12        141.2923 127.7449 188.1331 C.3            1 RES1               0.0000
     13 C13        142.3555 122.3114 190.2211 C.ar           1 RES1               0.0000
     14 C14        143.4692 123.3939 192.0286 C.ar           1 RES1               0.0000
     15 C15        145.2925 127.4038 188.8742 C.2            1 RES1               0.0000
     16 C16        142.9383 122.2512 191.4690 C.ar           1 RES1               0.0000
     17 O17        146.3573 127.9946 188.7176 O.2            1 RES1               0.0000
     18 H18        140.9675 125.6278 188.1798 H              1 RES1               0.0000
     19 H19        140.7027 126.4449 189.7305 H              1 RES1               0.0000
     20 H20        141.8394 123.5407 188.5531 H              1 RES1               0.0000
     21 H21        143.8422 125.4823 191.8024 H              1 RES1               0.0000
     22 H22        144.9732 128.1287 190.7564 H              1 RES1               0.0000
     23 H23        145.2957 126.4593 187.0675 H              1 RES1               0.0000
     24 H24        140.2712 127.9761 187.8369 H              1 RES1               0.0000
     25 H25        141.6471 128.5450 188.7793 H              1 RES1               0.0000
     26 H26        141.9104 127.7329 187.2378 H              1 RES1               0.0000
     27 H27        141.9351 121.4152 189.7768 H              1 RES1               0.0000
     28 H28        143.9282 123.3514 193.0108 H              1 RES1               0.0000
     29 H29        142.9787 121.3102 192.0076 H              1 RES1               0.0000
@<TRIPOS>BOND
    1    1    2 1     
    2    1    3 1     
    3    1    4 1     
    4    1    5 1     
    5    2    6 ar    
    6    2    7 ar    
    7    3    8 1     
    8    3    9 2     
    9    4   10 1     
   10    4   11 2     
   11    5   12 1     
   12    5   18 1     
   13    5   19 1     
   14    6   13 ar    
   15    6   20 1     
   16    7   14 ar    
   17    7   21 1     
   18    8   15 1     
   19    8   22 1     
   20   10   15 1     
   21   10   23 1     
   22   12   24 1     
   23   12   25 1     
   24   12   26 1     
   25   13   16 ar    
   26   13   27 1     
   27   14   16 ar    
   28   14   28 1     
   29   15   17 2     
   30   16   29 1     
@<TRIPOS>SUBSTRUCTURE
      1 RES1           1
@<TRIPOS>SET
DONOR_HYDROGENS      STATIC     ATOMS    <user>   **** ""
2 22 23
ATOM$RED        STATIC     ATOMS    COLORGROUP SYSTEM
2 22 23
@<TRIPOS>COMMENT
> <Gold.Version>
2022.3.0

> <Gold.Id.Protein>
unknown|7rmh_cavity_clean|pdb

> <Gold.Protein.RotatedTorsions>
[ 10338 10331 10329 10326 ] final  -92.54 input   60.01 | X-H torsion
[ 10390 10381 10380 10378 ] final   60.62 input   59.98 | X-H torsion
[ 10359 10350 10349 10347 ] final  101.23 input   59.97 | X-H torsion

> <Gold.Protein.ActiveResidues>
 ARG228  GLU230  ARG232  MET188  LEU190  ALA208  THR114  TYR115  ALA116  TYR117 
 ARG118  GLY119  GLN120 

> <Gold.Protein.RotatedAtoms>
  147.0517  128.1988  186.4212 H   0  0  0  0  0  0  0  0  0  0  0  0  # atno 10338 bound_to 10331
  136.3721  127.8281  178.3895 H   0  0  0  0  0  0  0  0  0  0  0  0  # atno 10359 bound_to 10350
  136.8145  135.9367  181.1948 H   0  0  0  0  0  0  0  0  0  0  0  0  # atno 10390 bound_to 10381
  147.9596  128.6334  185.1428 LP  0  0  0  0  0  0  0  0  0  0  0  0  # atno 14712 bound_to 10331
  147.1658  127.2063  185.1369 LP  0  0  0  0  0  0  0  0  0  0  0  0  # atno 14713 bound_to 10331
  135.3590  135.9417  180.4673 LP  0  0  0  0  0  0  0  0  0  0  0  0  # atno 14720 bound_to 10381
  136.6791  135.4268  179.6556 LP  0  0  0  0  0  0  0  0  0  0  0  0  # atno 14721 bound_to 10381
  136.8109  129.3920  178.4950 LP  0  0  0  0  0  0  0  0  0  0  0  0  # atno 14734 bound_to 10350
  135.6912  128.7846  179.5167 LP  0  0  0  0  0  0  0  0  0  0  0  0  # atno 14735 bound_to 10350

> <Gold.Score>
     Fitness  S(hb_ext) S(vdw_ext)  S(hb_int)    S(int)      intcor
     14.81       4.31       9.08       0.00      -1.99      -0.78

> <Gold.Goldscore.Fitness>
14.8145

> <Gold.Goldscore.Internal.Vdw>
-2.3861

> <Gold.Goldscore.Internal.Torsion>
-0.3776

> <Gold.Goldscore.External.Vdw>
9.0836

> <Gold.Goldscore.Internal.HBond>
0.0000

> <Gold.Goldscore.External.HBond>
4.3129

> <Gold.Goldscore.Internal.Correction>
-0.7752

> <Gold.Goldscore.Hbonds>
donor molecule, donor type, donor heavy atom, donor atom, acceptor molecule, acceptor atom, score
      P1  H 10331 10338       L1    17  0.70
      P1  H 10401 10414       L1    11  0.49

> <Gold.Goldscore.Internal.Vdw.Weighted>
-2.3861

> <Gold.Goldscore.Internal.Torsion.Weighted>
-0.3776

> <Gold.Goldscore.External.Vdw.Weighted>
12.4900

> <Gold.Goldscore.Internal.HBond.Weighted>
0.0000

> <Gold.Goldscore.External.HBond.Weighted>
4.3129

> <Gold.Goldscore.Internal.Correction.Weighted>
-0.7752

> <Gold.Rescore>
     Score     S(PLP)   S(hbond)     S(cho)   S(metal)  DE(clash)   DE(tors)     intcor
     19.99     -15.32       2.06       0.00       0.00       1.38       0.07       ----

> <Gold.PLP.Fitness>
19.9908

> <Gold.PLP.PLP>
-15.3195

> <Gold.PLP.part.hbond>
-3.6558

> <Gold.PLP.part.metal>
0.0000

> <Gold.PLP.part.buried>
0.0858

> <Gold.PLP.part.nonpolar>
-12.2869

> <Gold.PLP.part.repulsive>
0.2935

> <Gold.PLP.ligand.clash>
1.3759

> <Gold.PLP.ligand.torsion>
0.0721

> <Gold.PLP.Chemscore.Hbond>
2.0638

> <Gold.PLP.Chemscore.CHOScore>
0.0000

> <Gold.PLP.Chemscore.Metal>
0.0000

> <Gold.Chemscore.Hbonds>
donor molecule, donor type, donor heavy atom, donor atom, acceptor molecule, acceptor atom, score
      P1  H 10331 10338       L1    17  0.23
      P1  H 10401 10414       L1    11  1.00

> <Gold.PLP.Chemscore.Internal.Correction>
   9.000000E+99

