#       Name:                CT1002167954
#       Creating user name   hitesit
#       Creation time:       Sun Apr 16 23:04:53 2023


#       File generated by GOLD software.
#

@<TRIPOS>MOLECULE
CT1002167954|ligand_prepared|mol2|1|dock2
    29    30     1
SMALL
NO_CHARGES


@<TRIPOS>ATOM
      1 C1         143.1880 127.5440 189.6419 C.3            1 RES1               0.0000
      2 C2         142.7691 129.0259 189.5569 C.ar           1 RES1               0.0000
      3 C3         142.1193 126.8439 190.4763 C.2            1 RES1               0.0000
      4 C4         143.2817 127.0440 188.2046 C.2            1 RES1               0.0000
      5 C5         144.5618 127.3207 190.3160 C.3            1 RES1               0.0000
      6 C6         143.1679 129.9322 190.5348 C.ar           1 RES1               0.0000
      7 C7         141.9878 129.5012 188.5070 C.ar           1 RES1               0.0000
      8 N8         141.2370 126.0349 189.8228 N.am           1 RES1               0.0000
      9 O9         142.0276 127.0299 191.6834 O.2            1 RES1               0.0000
     10 N10        142.3915 126.0843 187.7993 N.am           1 RES1               0.0000
     11 O11        144.1077 127.4843 187.4146 O.2            1 RES1               0.0000
     12 C12        145.1883 125.9719 189.9991 C.3            1 RES1               0.0000
     13 C13        142.8013 131.2660 190.4642 C.ar           1 RES1               0.0000
     14 C14        141.6222 130.8354 188.4385 C.ar           1 RES1               0.0000
     15 C15        141.3537 125.5792 188.5342 C.2            1 RES1               0.0000
     16 C16        142.0287 131.7186 189.4160 C.ar           1 RES1               0.0000
     17 O17        140.5616 124.7577 188.0817 O.2            1 RES1               0.0000
     18 H18        145.2473 128.1133 189.9916 H              1 RES1               0.0000
     19 H19        144.4401 127.4068 191.4028 H              1 RES1               0.0000
     20 H20        143.7741 129.5939 191.3685 H              1 RES1               0.0000
     21 H21        141.6556 128.8242 187.7273 H              1 RES1               0.0000
     22 H22        140.4144 125.7416 190.3401 H              1 RES1               0.0000
     23 H23        142.5139 125.7118 186.8631 H              1 RES1               0.0000
     24 H24        146.1501 125.8668 190.4967 H              1 RES1               0.0000
     25 H25        144.5445 125.1600 190.3311 H              1 RES1               0.0000
     26 H26        145.3469 125.8624 188.9283 H              1 RES1               0.0000
     27 H27        143.1227 131.9567 191.2368 H              1 RES1               0.0000
     28 H28        141.0135 131.1871 187.6120 H              1 RES1               0.0000
     29 H29        141.7421 132.7635 189.3607 H              1 RES1               0.0000
@<TRIPOS>BOND
    1    1    2 1     
    2    1    3 1     
    3    1    4 1     
    4    1    5 1     
    5    2    6 ar    
    6    2    7 ar    
    7    3    8 1     
    8    3    9 2     
    9    4   10 1     
   10    4   11 2     
   11    5   12 1     
   12    5   18 1     
   13    5   19 1     
   14    6   13 ar    
   15    6   20 1     
   16    7   14 ar    
   17    7   21 1     
   18    8   15 1     
   19    8   22 1     
   20   10   15 1     
   21   10   23 1     
   22   12   24 1     
   23   12   25 1     
   24   12   26 1     
   25   13   16 ar    
   26   13   27 1     
   27   14   16 ar    
   28   14   28 1     
   29   15   17 2     
   30   16   29 1     
@<TRIPOS>SUBSTRUCTURE
      1 RES1           1
@<TRIPOS>SET
DONOR_HYDROGENS      STATIC     ATOMS    <user>   **** ""
2 22 23
ATOM$RED        STATIC     ATOMS    COLORGROUP SYSTEM
2 22 23
@<TRIPOS>COMMENT
> <Gold.Version>
2022.3.0

> <Gold.Id.Protein>
unknown|7rmh_cavity_clean|pdb

> <Gold.Protein.RotatedTorsions>
[ 10338 10331 10329 10326 ] final  -30.05 input   60.01 | X-H torsion
[ 10390 10381 10380 10378 ] final   91.48 input   59.98 | X-H torsion
[ 10359 10350 10349 10347 ] final -156.81 input   59.97 | X-H torsion

> <Gold.Protein.ActiveResidues>
 ARG228  GLU230  ARG232  MET188  LEU190  ALA208  THR114  TYR115  ALA116  TYR117 
 ARG118  GLY119  GLN120 

> <Gold.Protein.RotatedAtoms>
  146.8303  127.3739  185.9592 H   0  0  0  0  0  0  0  0  0  0  0  0  # atno 10338 bound_to 10331
  135.6479  128.4987  179.4589 H   0  0  0  0  0  0  0  0  0  0  0  0  # atno 10359 bound_to 10350
  137.1277  135.7613  180.8495 H   0  0  0  0  0  0  0  0  0  0  0  0  # atno 10390 bound_to 10381
  147.5955  128.8079  186.0337 LP  0  0  0  0  0  0  0  0  0  0  0  0  # atno 14712 bound_to 10331
  147.7528  127.8628  184.7113 LP  0  0  0  0  0  0  0  0  0  0  0  0  # atno 14713 bound_to 10331
  135.5315  136.0693  180.9208 LP  0  0  0  0  0  0  0  0  0  0  0  0  # atno 14720 bound_to 10381
  136.1911  135.4757  179.5499 LP  0  0  0  0  0  0  0  0  0  0  0  0  # atno 14721 bound_to 10381
  136.5673  127.9733  178.2229 LP  0  0  0  0  0  0  0  0  0  0  0  0  # atno 14734 bound_to 10350
  136.6637  129.5283  178.7123 LP  0  0  0  0  0  0  0  0  0  0  0  0  # atno 14735 bound_to 10350

> <Gold.Score>
     Fitness  S(hb_ext) S(vdw_ext)  S(hb_int)    S(int)      intcor
     15.09       5.46       7.81       0.00      -1.10      -0.78

> <Gold.Goldscore.Fitness>
15.0937

> <Gold.Goldscore.Internal.Vdw>
-0.9710

> <Gold.Goldscore.Internal.Torsion>
-0.9142

> <Gold.Goldscore.External.Vdw>
7.8121

> <Gold.Goldscore.Internal.HBond>
0.0000

> <Gold.Goldscore.External.HBond>
5.4553

> <Gold.Goldscore.Internal.Correction>
-0.7819

> <Gold.Goldscore.Hbonds>
donor molecule, donor type, donor heavy atom, donor atom, acceptor molecule, acceptor atom, score
      P1  H 10398 10410       L1    17  0.91

> <Gold.Goldscore.Internal.Vdw.Weighted>
-0.9710

> <Gold.Goldscore.Internal.Torsion.Weighted>
-0.9142

> <Gold.Goldscore.External.Vdw.Weighted>
10.7416

> <Gold.Goldscore.Internal.HBond.Weighted>
0.0000

> <Gold.Goldscore.External.HBond.Weighted>
5.4553

> <Gold.Goldscore.Internal.Correction.Weighted>
-0.7819

> <Gold.Rescore>
     Score     S(PLP)   S(hbond)     S(cho)   S(metal)  DE(clash)   DE(tors)     intcor
     20.62     -17.21       1.96       0.00       0.00       0.00       1.23       ----

> <Gold.PLP.Fitness>
20.6197

> <Gold.PLP.PLP>
-17.2084

> <Gold.PLP.part.hbond>
-2.6176

> <Gold.PLP.part.metal>
0.0000

> <Gold.PLP.part.buried>
-3.1243

> <Gold.PLP.part.nonpolar>
-12.2573

> <Gold.PLP.part.repulsive>
0.2215

> <Gold.PLP.ligand.clash>
0.0000

> <Gold.PLP.ligand.torsion>
1.2344

> <Gold.PLP.Chemscore.Hbond>
1.9600

> <Gold.PLP.Chemscore.CHOScore>
0.0000

> <Gold.PLP.Chemscore.Metal>
0.0000

> <Gold.Chemscore.Hbonds>
donor molecule, donor type, donor heavy atom, donor atom, acceptor molecule, acceptor atom, score
      P1  H 10398 10410       L1    17  1.00

> <Gold.PLP.Chemscore.Internal.Correction>
   9.000000E+99

