#       Name:                CT1002167954
#       Creating user name   hitesit
#       Creation time:       Sun Apr 16 23:04:54 2023


#       File generated by GOLD software.
#

@<TRIPOS>MOLECULE
CT1002167954|ligand_prepared|mol2|1|dock4
    29    30     1
SMALL
NO_CHARGES


@<TRIPOS>ATOM
      1 C1         142.5147 127.9436 189.3029 C.3            1 RES1               0.0000
      2 C2         143.0380 129.3927 189.2324 C.ar           1 RES1               0.0000
      3 C3         141.0212 128.0121 188.9977 C.2            1 RES1               0.0000
      4 C4         143.3222 127.1482 188.2831 C.2            1 RES1               0.0000
      5 C5         142.7034 127.2777 190.6859 C.3            1 RES1               0.0000
      6 C6         142.9845 130.1081 188.0399 C.ar           1 RES1               0.0000
      7 C7         143.5737 130.0272 190.3500 C.ar           1 RES1               0.0000
      8 N8         140.6048 127.5691 187.7770 N.am           1 RES1               0.0000
      9 O9         140.2259 128.4842 189.8007 O.2            1 RES1               0.0000
     10 N10        142.6597 126.6344 187.1992 N.am           1 RES1               0.0000
     11 O11        144.5293 126.9759 188.3999 O.2            1 RES1               0.0000
     12 C12        142.2360 125.8318 190.7391 C.3            1 RES1               0.0000
     13 C13        143.4470 131.4117 187.9679 C.ar           1 RES1               0.0000
     14 C14        144.0358 131.3308 190.2758 C.ar           1 RES1               0.0000
     15 C15        141.3434 126.8348 186.8841 C.2            1 RES1               0.0000
     16 C16        143.9725 132.0240 189.0858 C.ar           1 RES1               0.0000
     17 O17        140.8324 126.3850 185.8625 O.2            1 RES1               0.0000
     18 H18        143.7665 127.3153 190.9538 H              1 RES1               0.0000
     19 H19        142.1483 127.8560 191.4349 H              1 RES1               0.0000
     20 H20        142.5766 129.6420 187.1492 H              1 RES1               0.0000
     21 H21        143.6345 129.5008 191.2965 H              1 RES1               0.0000
     22 H22        139.6567 127.8056 187.5025 H              1 RES1               0.0000
     23 H23        143.1976 126.0481 186.5690 H              1 RES1               0.0000
     24 H24        142.3908 125.4126 191.7311 H              1 RES1               0.0000
     25 H25        141.1764 125.7599 190.5025 H              1 RES1               0.0000
     26 H26        142.7850 125.2224 190.0243 H              1 RES1               0.0000
     27 H27        143.3962 131.9524 187.0287 H              1 RES1               0.0000
     28 H28        144.4492 131.8085 191.1579 H              1 RES1               0.0000
     29 H29        144.3343 133.0453 189.0293 H              1 RES1               0.0000
@<TRIPOS>BOND
    1    1    2 1     
    2    1    3 1     
    3    1    4 1     
    4    1    5 1     
    5    2    6 ar    
    6    2    7 ar    
    7    3    8 1     
    8    3    9 2     
    9    4   10 1     
   10    4   11 2     
   11    5   12 1     
   12    5   18 1     
   13    5   19 1     
   14    6   13 ar    
   15    6   20 1     
   16    7   14 ar    
   17    7   21 1     
   18    8   15 1     
   19    8   22 1     
   20   10   15 1     
   21   10   23 1     
   22   12   24 1     
   23   12   25 1     
   24   12   26 1     
   25   13   16 ar    
   26   13   27 1     
   27   14   16 ar    
   28   14   28 1     
   29   15   17 2     
   30   16   29 1     
@<TRIPOS>SUBSTRUCTURE
      1 RES1           1
@<TRIPOS>SET
DONOR_HYDROGENS      STATIC     ATOMS    <user>   **** ""
2 22 23
ATOM$RED        STATIC     ATOMS    COLORGROUP SYSTEM
2 22 23
@<TRIPOS>COMMENT
> <Gold.Version>
2022.3.0

> <Gold.Id.Protein>
unknown|7rmh_cavity_clean|pdb

> <Gold.Protein.RotatedTorsions>
[ 10338 10331 10329 10326 ] final  -62.43 input   60.01 | X-H torsion
[ 10390 10381 10380 10378 ] final -140.81 input   59.98 | X-H torsion
[ 10359 10350 10349 10347 ] final -116.07 input   59.97 | X-H torsion

> <Gold.Protein.ActiveResidues>
 ARG228  GLU230  ARG232  MET188  LEU190  ALA208  THR114  TYR115  ALA116  TYR117 
 ARG118  GLY119  GLN120 

> <Gold.Protein.RotatedAtoms>
  146.8691  127.7635  186.3044 H   0  0  0  0  0  0  0  0  0  0  0  0  # atno 10338 bound_to 10331
  135.8402  129.1214  179.4826 H   0  0  0  0  0  0  0  0  0  0  0  0  # atno 10359 bound_to 10350
  136.0689  135.5017  179.5704 H   0  0  0  0  0  0  0  0  0  0  0  0  # atno 10390 bound_to 10381
  147.8498  128.8372  185.5744 LP  0  0  0  0  0  0  0  0  0  0  0  0  # atno 14712 bound_to 10331
  147.4595  127.4410  184.8229 LP  0  0  0  0  0  0  0  0  0  0  0  0  # atno 14713 bound_to 10331
  137.1776  135.7176  180.7417 LP  0  0  0  0  0  0  0  0  0  0  0  0  # atno 14720 bound_to 10381
  135.6114  136.0889  181.0173 LP  0  0  0  0  0  0  0  0  0  0  0  0  # atno 14721 bound_to 10381
  136.1154  127.7532  178.6449 LP  0  0  0  0  0  0  0  0  0  0  0  0  # atno 14734 bound_to 10350
  136.9220  129.1217  178.2665 LP  0  0  0  0  0  0  0  0  0  0  0  0  # atno 14735 bound_to 10350

> <Gold.Score>
     Fitness  S(hb_ext) S(vdw_ext)  S(hb_int)    S(int)      intcor
     17.45       0.02      12.69       0.00      -0.01      -0.78

> <Gold.Goldscore.Fitness>
17.4500

> <Gold.Goldscore.Internal.Vdw>
-0.4182

> <Gold.Goldscore.Internal.Torsion>
-0.3744

> <Gold.Goldscore.External.Vdw>
12.6856

> <Gold.Goldscore.Internal.HBond>
0.0000

> <Gold.Goldscore.External.HBond>
0.0201

> <Gold.Goldscore.Internal.Correction>
-0.7797

> <Gold.Goldscore.Hbonds>
donor molecule, donor type, donor heavy atom, donor atom, acceptor molecule, acceptor atom, score
      P1  H 10339 10351       L1    17  0.01

> <Gold.Goldscore.Internal.Vdw.Weighted>
-0.4182

> <Gold.Goldscore.Internal.Torsion.Weighted>
-0.3744

> <Gold.Goldscore.External.Vdw.Weighted>
17.4428

> <Gold.Goldscore.Internal.HBond.Weighted>
0.0000

> <Gold.Goldscore.External.HBond.Weighted>
0.0201

> <Gold.Goldscore.Internal.Correction.Weighted>
-0.7797

> <Gold.Rescore>
     Score     S(PLP)   S(hbond)     S(cho)   S(metal)  DE(clash)   DE(tors)     intcor
     20.38     -14.81       1.88       0.00       0.00       0.00       0.03       ----

> <Gold.PLP.Fitness>
20.3806

> <Gold.PLP.PLP>
-14.8137

> <Gold.PLP.part.hbond>
-4.6884

> <Gold.PLP.part.metal>
0.0000

> <Gold.PLP.part.buried>
-1.7751

> <Gold.PLP.part.nonpolar>
-10.5691

> <Gold.PLP.part.repulsive>
0.7273

> <Gold.PLP.ligand.clash>
0.0000

> <Gold.PLP.ligand.torsion>
0.0306

> <Gold.PLP.Chemscore.Hbond>
1.8760

> <Gold.PLP.Chemscore.CHOScore>
0.0000

> <Gold.PLP.Chemscore.Metal>
0.0000

> <Gold.Chemscore.Hbonds>
donor molecule, donor type, donor heavy atom, donor atom, acceptor molecule, acceptor atom, score
      P1  H 10339 10351       L1    17  0.34

> <Gold.PLP.Chemscore.Internal.Correction>
   9.000000E+99

