#       Name:                CT1002167954
#       Creating user name   hitesit
#       Creation time:       Sun Apr 16 23:04:53 2023


#       File generated by GOLD software.
#

@<TRIPOS>MOLECULE
CT1002167954|ligand_prepared|mol2|1|dock1
    29    30     1
SMALL
NO_CHARGES


@<TRIPOS>ATOM
      1 C1         142.1836 125.3595 189.2302 C.3            1 RES1               0.0000
      2 C2         142.5828 124.0782 188.4702 C.ar           1 RES1               0.0000
      3 C3         142.1054 126.4699 188.1865 C.2            1 RES1               0.0000
      4 C4         140.8555 125.0537 189.9139 C.2            1 RES1               0.0000
      5 C5         143.1963 125.7806 190.3204 C.3            1 RES1               0.0000
      6 C6         143.9108 123.8423 188.1275 C.ar           1 RES1               0.0000
      7 C7         141.6364 123.1234 188.1079 C.ar           1 RES1               0.0000
      8 N8         140.8664 126.9056 187.8191 N.am           1 RES1               0.0000
      9 O9         143.1141 126.9287 187.6648 O.2            1 RES1               0.0000
     10 N10        139.7467 125.7450 189.5011 N.am           1 RES1               0.0000
     11 O11        140.7561 124.2085 190.7948 O.2            1 RES1               0.0000
     12 C12        142.6745 126.8569 191.2592 C.3            1 RES1               0.0000
     13 C13        144.2799 122.6921 187.4499 C.ar           1 RES1               0.0000
     14 C14        142.0077 121.9739 187.4301 C.ar           1 RES1               0.0000
     15 C15        139.6861 126.6351 188.4637 C.2            1 RES1               0.0000
     16 C16        143.3288 121.7571 187.1011 C.ar           1 RES1               0.0000
     17 O17        138.6399 127.1759 188.1170 O.2            1 RES1               0.0000
     18 H18        143.4664 124.8969 190.9116 H              1 RES1               0.0000
     19 H19        144.1073 126.1489 189.8327 H              1 RES1               0.0000
     20 H20        144.6729 124.5680 188.3914 H              1 RES1               0.0000
     21 H21        140.5910 123.2734 188.3554 H              1 RES1               0.0000
     22 H22        140.8124 127.4862 186.9883 H              1 RES1               0.0000
     23 H23        138.8868 125.5810 190.0150 H              1 RES1               0.0000
     24 H24        143.4240 127.1153 192.0043 H              1 RES1               0.0000
     25 H25        142.4197 127.7594 190.7077 H              1 RES1               0.0000
     26 H26        141.7826 126.5148 191.7802 H              1 RES1               0.0000
     27 H27        145.3208 122.5268 187.1921 H              1 RES1               0.0000
     28 H28        141.2557 121.2410 187.1571 H              1 RES1               0.0000
     29 H29        143.6183 120.8559 186.5707 H              1 RES1               0.0000
@<TRIPOS>BOND
    1    1    2 1     
    2    1    3 1     
    3    1    4 1     
    4    1    5 1     
    5    2    6 ar    
    6    2    7 ar    
    7    3    8 1     
    8    3    9 2     
    9    4   10 1     
   10    4   11 2     
   11    5   12 1     
   12    5   18 1     
   13    5   19 1     
   14    6   13 ar    
   15    6   20 1     
   16    7   14 ar    
   17    7   21 1     
   18    8   15 1     
   19    8   22 1     
   20   10   15 1     
   21   10   23 1     
   22   12   24 1     
   23   12   25 1     
   24   12   26 1     
   25   13   16 ar    
   26   13   27 1     
   27   14   16 ar    
   28   14   28 1     
   29   15   17 2     
   30   16   29 1     
@<TRIPOS>SUBSTRUCTURE
      1 RES1           1
@<TRIPOS>SET
DONOR_HYDROGENS      STATIC     ATOMS    <user>   **** ""
2 22 23
ATOM$RED        STATIC     ATOMS    COLORGROUP SYSTEM
2 22 23
@<TRIPOS>COMMENT
> <Gold.Version>
2022.3.0

> <Gold.Id.Protein>
unknown|7rmh_cavity_clean|pdb

> <Gold.Protein.RotatedTorsions>
[ 10338 10331 10329 10326 ] final  -91.10 input   60.01 | X-H torsion
[ 10390 10381 10380 10378 ] final  169.33 input   59.98 | X-H torsion
[ 10359 10350 10349 10347 ] final  153.10 input   59.97 | X-H torsion

> <Gold.Protein.ActiveResidues>
 ARG228  GLU230  ARG232  MET188  LEU190  ALA208  THR114  TYR115  ALA116  TYR117 
 ARG118  GLY119  GLN120 

> <Gold.Protein.RotatedAtoms>
  147.0404  128.1782  186.4208 H   0  0  0  0  0  0  0  0  0  0  0  0  # atno 10338 bound_to 10331
  135.8365  127.8746  179.0077 H   0  0  0  0  0  0  0  0  0  0  0  0  # atno 10359 bound_to 10350
  136.8321  135.4334  179.7592 H   0  0  0  0  0  0  0  0  0  0  0  0  # atno 10390 bound_to 10381
  147.9577  128.6476  185.1617 LP  0  0  0  0  0  0  0  0  0  0  0  0  # atno 14712 bound_to 10331
  147.1791  127.2129  185.1184 LP  0  0  0  0  0  0  0  0  0  0  0  0  # atno 14713 bound_to 10331
  136.6591  135.9951  181.2765 LP  0  0  0  0  0  0  0  0  0  0  0  0  # atno 14720 bound_to 10381
  135.3612  135.8803  180.2923 LP  0  0  0  0  0  0  0  0  0  0  0  0  # atno 14721 bound_to 10381
  136.9207  128.6778  178.0974 LP  0  0  0  0  0  0  0  0  0  0  0  0  # atno 14734 bound_to 10350
  136.1204  129.4520  179.2919 LP  0  0  0  0  0  0  0  0  0  0  0  0  # atno 14735 bound_to 10350

> <Gold.Score>
     Fitness  S(hb_ext) S(vdw_ext)  S(hb_int)    S(int)      intcor
     28.09       2.18      19.52       0.00      -0.92      -0.78

> <Gold.Goldscore.Fitness>
28.0944

> <Gold.Goldscore.Internal.Vdw>
-1.1081

> <Gold.Goldscore.Internal.Torsion>
-0.5934

> <Gold.Goldscore.External.Vdw>
19.5192

> <Gold.Goldscore.Internal.HBond>
0.0000

> <Gold.Goldscore.External.HBond>
2.1750

> <Gold.Goldscore.Internal.Correction>
-0.7819

> <Gold.Goldscore.Hbonds>
donor molecule, donor type, donor heavy atom, donor atom, acceptor molecule, acceptor atom, score
      L1  H     8    22       P1 10342  1.00
      L1  H    10    23       P1 10418  0.09

> <Gold.Goldscore.Internal.Vdw.Weighted>
-1.1081

> <Gold.Goldscore.Internal.Torsion.Weighted>
-0.5934

> <Gold.Goldscore.External.Vdw.Weighted>
26.8390

> <Gold.Goldscore.Internal.HBond.Weighted>
0.0000

> <Gold.Goldscore.External.HBond.Weighted>
2.1750

> <Gold.Goldscore.Internal.Correction.Weighted>
-0.7819

> <Gold.Rescore>
     Score     S(PLP)   S(hbond)     S(cho)   S(metal)  DE(clash)   DE(tors)     intcor
     18.10     -19.55       0.39       0.00       0.00       0.00       1.31       ----

> <Gold.PLP.Fitness>
18.1001

> <Gold.PLP.PLP>
-19.5471

> <Gold.PLP.part.hbond>
-1.0000

> <Gold.PLP.part.metal>
0.0000

> <Gold.PLP.part.buried>
-4.5745

> <Gold.PLP.part.nonpolar>
-16.9618

> <Gold.PLP.part.repulsive>
2.1625

> <Gold.PLP.ligand.clash>
0.0000

> <Gold.PLP.ligand.torsion>
1.3069

> <Gold.PLP.Chemscore.Hbond>
0.3890

> <Gold.PLP.Chemscore.CHOScore>
0.0000

> <Gold.PLP.Chemscore.Metal>
0.0000

> <Gold.Chemscore.Hbonds>
donor molecule, donor type, donor heavy atom, donor atom, acceptor molecule, acceptor atom, score
      L1  H     8    22       P1 10342  0.89
      L1  H    10    23       P1 10418  0.63

> <Gold.PLP.Chemscore.Internal.Correction>
   9.000000E+99

