#       Name:                CT1002167954
#       Creating user name   hitesit
#       Creation time:       Sun Apr 16 23:04:55 2023


#       File generated by GOLD software.
#

@<TRIPOS>MOLECULE
CT1002167954|ligand_prepared|mol2|1|dock5
    29    30     1
SMALL
NO_CHARGES


@<TRIPOS>ATOM
      1 C1         142.0150 124.4150 189.4014 C.3            1 RES1               0.0000
      2 C2         142.6030 123.2839 188.5332 C.ar           1 RES1               0.0000
      3 C3         142.6515 125.7103 188.9062 C.2            1 RES1               0.0000
      4 C4         140.5030 124.3538 189.2149 C.2            1 RES1               0.0000
      5 C5         142.3166 124.2651 190.9107 C.3            1 RES1               0.0000
      6 C6         142.1815 121.9685 188.7025 C.ar           1 RES1               0.0000
      7 C7         143.5639 123.5404 187.5588 C.ar           1 RES1               0.0000
      8 N8         141.8741 126.5552 188.1702 N.am           1 RES1               0.0000
      9 O9         143.8289 125.9679 189.1245 O.2            1 RES1               0.0000
     10 N10        139.8895 125.4096 188.5930 N.am           1 RES1               0.0000
     11 O11        139.8395 123.3934 189.5860 O.2            1 RES1               0.0000
     12 C12        141.8193 125.4287 191.7539 C.3            1 RES1               0.0000
     13 C13        142.6996 120.9469 187.9240 C.ar           1 RES1               0.0000
     14 C14        144.0809 122.5172 186.7814 C.ar           1 RES1               0.0000
     15 C15        140.5105 126.4936 188.0347 C.2            1 RES1               0.0000
     16 C16        143.6492 121.2205 186.9628 C.ar           1 RES1               0.0000
     17 O17        139.8949 127.3762 187.4439 O.2            1 RES1               0.0000
     18 H18        141.8502 123.3411 191.2740 H              1 RES1               0.0000
     19 H19        143.4010 124.1691 191.0463 H              1 RES1               0.0000
     20 H20        141.4368 121.7336 189.4556 H              1 RES1               0.0000
     21 H21        143.9192 124.5528 187.3993 H              1 RES1               0.0000
     22 H22        142.3507 127.3019 187.6747 H              1 RES1               0.0000
     23 H23        138.8761 125.3852 188.5415 H              1 RES1               0.0000
     24 H24        142.0566 125.2732 192.8042 H              1 RES1               0.0000
     25 H25        142.2822 126.3608 191.4363 H              1 RES1               0.0000
     26 H26        140.7405 125.5377 191.6627 H              1 RES1               0.0000
     27 H27        142.3576 119.9278 188.0715 H              1 RES1               0.0000
     28 H28        144.8286 122.7371 186.0265 H              1 RES1               0.0000
     29 H29        144.0547 120.4201 186.3527 H              1 RES1               0.0000
@<TRIPOS>BOND
    1    1    2 1     
    2    1    3 1     
    3    1    4 1     
    4    1    5 1     
    5    2    6 ar    
    6    2    7 ar    
    7    3    8 1     
    8    3    9 2     
    9    4   10 1     
   10    4   11 2     
   11    5   12 1     
   12    5   18 1     
   13    5   19 1     
   14    6   13 ar    
   15    6   20 1     
   16    7   14 ar    
   17    7   21 1     
   18    8   15 1     
   19    8   22 1     
   20   10   15 1     
   21   10   23 1     
   22   12   24 1     
   23   12   25 1     
   24   12   26 1     
   25   13   16 ar    
   26   13   27 1     
   27   14   16 ar    
   28   14   28 1     
   29   15   17 2     
   30   16   29 1     
@<TRIPOS>SUBSTRUCTURE
      1 RES1           1
@<TRIPOS>SET
DONOR_HYDROGENS      STATIC     ATOMS    <user>   **** ""
2 22 23
ATOM$RED        STATIC     ATOMS    COLORGROUP SYSTEM
2 22 23
@<TRIPOS>COMMENT
> <Gold.Version>
2022.3.0

> <Gold.Id.Protein>
unknown|7rmh_cavity_clean|pdb

> <Gold.Protein.RotatedTorsions>
[ 10338 10331 10329 10326 ] final   89.63 input   60.01 | X-H torsion
[ 10390 10381 10380 10378 ] final   43.36 input   59.98 | X-H torsion
[ 10359 10350 10349 10347 ] final  176.19 input   59.97 | X-H torsion

> <Gold.Protein.ActiveResidues>
 ARG228  GLU230  ARG232  MET188  LEU190  ALA208  THR114  TYR115  ALA116  TYR117 
 ARG118  GLY119  GLN120 

> <Gold.Protein.RotatedAtoms>
  147.7458  127.8603  184.7163 H   0  0  0  0  0  0  0  0  0  0  0  0  # atno 10338 bound_to 10331
  135.6930  128.1121  179.2598 H   0  0  0  0  0  0  0  0  0  0  0  0  # atno 10359 bound_to 10350
  136.5662  136.0166  181.2990 H   0  0  0  0  0  0  0  0  0  0  0  0  # atno 10390 bound_to 10381
  146.8277  127.3712  185.9674 LP  0  0  0  0  0  0  0  0  0  0  0  0  # atno 14712 bound_to 10331
  147.5985  128.8095  186.0296 LP  0  0  0  0  0  0  0  0  0  0  0  0  # atno 14713 bound_to 10331
  135.3768  135.8460  180.2017 LP  0  0  0  0  0  0  0  0  0  0  0  0  # atno 14720 bound_to 10381
  136.9114  135.4419  179.8163 LP  0  0  0  0  0  0  0  0  0  0  0  0  # atno 14721 bound_to 10381
  136.8050  128.3188  178.0893 LP  0  0  0  0  0  0  0  0  0  0  0  0  # atno 14734 bound_to 10350
  136.3806  129.5719  179.0464 LP  0  0  0  0  0  0  0  0  0  0  0  0  # atno 14735 bound_to 10350

> <Gold.Score>
     Fitness  S(hb_ext) S(vdw_ext)  S(hb_int)    S(int)      intcor
     23.61       0.38      19.67       0.00      -3.81      -0.78

> <Gold.Goldscore.Fitness>
23.6137

> <Gold.Goldscore.Internal.Vdw>
-4.1884

> <Gold.Goldscore.Internal.Torsion>
-0.3941

> <Gold.Goldscore.External.Vdw>
19.6691

> <Gold.Goldscore.Internal.HBond>
0.0000

> <Gold.Goldscore.External.HBond>
0.3759

> <Gold.Goldscore.Internal.Correction>
-0.7752

> <Gold.Goldscore.Hbonds>
donor molecule, donor type, donor heavy atom, donor atom, acceptor molecule, acceptor atom, score
      L1  H    10    23       P1 10418  0.19

> <Gold.Goldscore.Internal.Vdw.Weighted>
-4.1884

> <Gold.Goldscore.Internal.Torsion.Weighted>
-0.3941

> <Gold.Goldscore.External.Vdw.Weighted>
27.0451

> <Gold.Goldscore.Internal.HBond.Weighted>
0.0000

> <Gold.Goldscore.External.HBond.Weighted>
0.3759

> <Gold.Goldscore.Internal.Correction.Weighted>
-0.7752

> <Gold.Rescore>
     Score     S(PLP)   S(hbond)     S(cho)   S(metal)  DE(clash)   DE(tors)     intcor
     24.93     -23.76       0.98       0.00       0.00       0.88       0.44       ----

> <Gold.PLP.Fitness>
24.9312

> <Gold.PLP.PLP>
-23.7613

> <Gold.PLP.part.hbond>
-1.0000

> <Gold.PLP.part.metal>
0.0000

> <Gold.PLP.part.buried>
-5.8778

> <Gold.PLP.part.nonpolar>
-18.2347

> <Gold.PLP.part.repulsive>
0.6522

> <Gold.PLP.ligand.clash>
0.8769

> <Gold.PLP.ligand.torsion>
0.4406

> <Gold.PLP.Chemscore.Hbond>
0.9760

> <Gold.PLP.Chemscore.CHOScore>
0.0000

> <Gold.PLP.Chemscore.Metal>
0.0000

> <Gold.Chemscore.Hbonds>
donor molecule, donor type, donor heavy atom, donor atom, acceptor molecule, acceptor atom, score
      L1  H    10    23       P1 10418  0.59

> <Gold.PLP.Chemscore.Internal.Correction>
   9.000000E+99

