#       Name:                CT1002167954
#       Creating user name   hitesit
#       Creation time:       Sun Apr 16 23:04:56 2023


#       File generated by GOLD software.
#

@<TRIPOS>MOLECULE
CT1002167954|ligand_prepared|mol2|1|dock8
    29    30     1
SMALL
NO_CHARGES


@<TRIPOS>ATOM
      1 C1         144.1867 126.7712 189.5721 C.3            1 RES1               0.0000
      2 C2         143.7288 127.8215 190.6046 C.ar           1 RES1               0.0000
      3 C3         143.8200 125.4095 190.1547 C.2            1 RES1               0.0000
      4 C4         143.4636 127.1071 188.2725 C.2            1 RES1               0.0000
      5 C5         145.7075 126.7922 189.2918 C.3            1 RES1               0.0000
      6 C6         144.5474 128.1655 191.6762 C.ar           1 RES1               0.0000
      7 C7         142.4940 128.4557 190.4974 C.ar           1 RES1               0.0000
      8 N8         142.7597 124.7516 189.6043 N.am           1 RES1               0.0000
      9 O9         144.4271 124.9379 191.1083 O.2            1 RES1               0.0000
     10 N10        142.5455 126.2075 187.7975 N.am           1 RES1               0.0000
     11 O11        143.6685 128.1503 187.6642 O.2            1 RES1               0.0000
     12 C12        146.1262 125.9242 188.1157 C.3            1 RES1               0.0000
     13 C13        144.1473 129.1114 192.6054 C.ar           1 RES1               0.0000
     14 C14        142.0957 129.4012 191.4280 C.ar           1 RES1               0.0000
     15 C15        142.1385 125.0593 188.4206 C.2            1 RES1               0.0000
     16 C16        142.9216 129.7302 192.4818 C.ar           1 RES1               0.0000
     17 O17        141.2676 124.3287 187.9570 O.2            1 RES1               0.0000
     18 H18        146.0160 127.8263 189.0951 H              1 RES1               0.0000
     19 H19        146.2367 126.4494 190.1896 H              1 RES1               0.0000
     20 H20        145.5144 127.6874 191.7913 H              1 RES1               0.0000
     21 H21        141.8274 128.2119 189.6772 H              1 RES1               0.0000
     22 H22        142.3950 123.9574 190.1205 H              1 RES1               0.0000
     23 H23        142.1269 126.4127 186.8959 H              1 RES1               0.0000
     24 H24        147.2021 125.9749 187.9626 H              1 RES1               0.0000
     25 H25        145.8572 124.8842 188.2886 H              1 RES1               0.0000
     26 H26        145.6378 126.2529 187.2006 H              1 RES1               0.0000
     27 H27        144.8004 129.3658 193.4337 H              1 RES1               0.0000
     28 H28        141.1299 129.8852 191.3271 H              1 RES1               0.0000
     29 H29        142.6086 130.4715 193.2096 H              1 RES1               0.0000
@<TRIPOS>BOND
    1    1    2 1     
    2    1    3 1     
    3    1    4 1     
    4    1    5 1     
    5    2    6 ar    
    6    2    7 ar    
    7    3    8 1     
    8    3    9 2     
    9    4   10 1     
   10    4   11 2     
   11    5   12 1     
   12    5   18 1     
   13    5   19 1     
   14    6   13 ar    
   15    6   20 1     
   16    7   14 ar    
   17    7   21 1     
   18    8   15 1     
   19    8   22 1     
   20   10   15 1     
   21   10   23 1     
   22   12   24 1     
   23   12   25 1     
   24   12   26 1     
   25   13   16 ar    
   26   13   27 1     
   27   14   16 ar    
   28   14   28 1     
   29   15   17 2     
   30   16   29 1     
@<TRIPOS>SUBSTRUCTURE
      1 RES1           1
@<TRIPOS>SET
DONOR_HYDROGENS      STATIC     ATOMS    <user>   **** ""
2 22 23
ATOM$RED        STATIC     ATOMS    COLORGROUP SYSTEM
2 22 23
@<TRIPOS>COMMENT
> <Gold.Version>
2022.3.0

> <Gold.Id.Protein>
unknown|7rmh_cavity_clean|pdb

> <Gold.Protein.RotatedTorsions>
[ 10338 10331 10329 10326 ] final  -65.94 input   60.01 | X-H torsion
[ 10390 10381 10380 10378 ] final   84.42 input   59.98 | X-H torsion
[ 10359 10350 10349 10347 ] final   18.90 input   59.97 | X-H torsion

> <Gold.Protein.ActiveResidues>
 ARG228  GLU230  ARG232  MET188  LEU190  ALA208  THR114  TYR115  ALA116  TYR117 
 ARG118  GLY119  GLN120 

> <Gold.Protein.RotatedAtoms>
  146.8838  127.8130  186.3294 H   0  0  0  0  0  0  0  0  0  0  0  0  # atno 10338 bound_to 10331
  136.9398  128.8995  178.1648 H   0  0  0  0  0  0  0  0  0  0  0  0  # atno 10359 bound_to 10350
  137.0749  135.8032  180.9430 H   0  0  0  0  0  0  0  0  0  0  0  0  # atno 10390 bound_to 10381
  147.8699  128.8243  185.5218 LP  0  0  0  0  0  0  0  0  0  0  0  0  # atno 14712 bound_to 10331
  147.4246  127.4040  184.8503 LP  0  0  0  0  0  0  0  0  0  0  0  0  # atno 14713 bound_to 10331
  135.4704  136.0466  180.8248 LP  0  0  0  0  0  0  0  0  0  0  0  0  # atno 14720 bound_to 10381
  136.3055  135.4563  179.5518 LP  0  0  0  0  0  0  0  0  0  0  0  0  # atno 14721 bound_to 10381
  135.9714  129.3135  179.4058 LP  0  0  0  0  0  0  0  0  0  0  0  0  # atno 14734 bound_to 10350
  135.9593  127.7847  178.8320 LP  0  0  0  0  0  0  0  0  0  0  0  0  # atno 14735 bound_to 10350

> <Gold.Score>
     Fitness  S(hb_ext) S(vdw_ext)  S(hb_int)    S(int)      intcor
     15.63       6.17       7.49       0.00      -0.84      -0.78

> <Gold.Goldscore.Fitness>
15.6323

> <Gold.Goldscore.Internal.Vdw>
-1.1054

> <Gold.Goldscore.Internal.Torsion>
-0.5077

> <Gold.Goldscore.External.Vdw>
7.4944

> <Gold.Goldscore.Internal.HBond>
0.0000

> <Gold.Goldscore.External.HBond>
6.1653

> <Gold.Goldscore.Internal.Correction>
-0.7752

> <Gold.Goldscore.Hbonds>
donor molecule, donor type, donor heavy atom, donor atom, acceptor molecule, acceptor atom, score
      P1  H 10398 10410       L1    17  1.00
      P1  H 10401 10414       L1    17  0.03

> <Gold.Goldscore.Internal.Vdw.Weighted>
-1.1054

> <Gold.Goldscore.Internal.Torsion.Weighted>
-0.5077

> <Gold.Goldscore.External.Vdw.Weighted>
10.3049

> <Gold.Goldscore.Internal.HBond.Weighted>
0.0000

> <Gold.Goldscore.External.HBond.Weighted>
6.1653

> <Gold.Goldscore.Internal.Correction.Weighted>
-0.7752

> <Gold.Rescore>
     Score     S(PLP)   S(hbond)     S(cho)   S(metal)  DE(clash)   DE(tors)     intcor
     11.07      -9.70       1.05       0.00       0.00       0.43       0.67       ----

> <Gold.PLP.Fitness>
11.0739

> <Gold.PLP.PLP>
-9.7021

> <Gold.PLP.part.hbond>
-3.6835

> <Gold.PLP.part.metal>
0.0000

> <Gold.PLP.part.buried>
-2.8562

> <Gold.PLP.part.nonpolar>
-4.1831

> <Gold.PLP.part.repulsive>
0.5866

> <Gold.PLP.ligand.clash>
0.4276

> <Gold.PLP.ligand.torsion>
0.6705

> <Gold.PLP.Chemscore.Hbond>
1.0468

> <Gold.PLP.Chemscore.CHOScore>
0.0000

> <Gold.PLP.Chemscore.Metal>
0.0000

> <Gold.Chemscore.Hbonds>
donor molecule, donor type, donor heavy atom, donor atom, acceptor molecule, acceptor atom, score
      P1  H 10398 10410       L1    17  1.00
      P1  H 10401 10414       L1    17  0.11

> <Gold.PLP.Chemscore.Internal.Correction>
   9.000000E+99

