#       Name:                CT1002167954
#       Creating user name   hitesit
#       Creation time:       Sun Apr 16 23:04:56 2023


#       File generated by GOLD software.
#

@<TRIPOS>MOLECULE
CT1002167954|ligand_prepared|mol2|1|dock7
    29    30     1
SMALL
NO_CHARGES


@<TRIPOS>ATOM
      1 C1         142.0647 124.2187 188.8473 C.3            1 RES1               0.0000
      2 C2         143.5499 124.3438 189.2440 C.ar           1 RES1               0.0000
      3 C3         141.2603 124.4291 190.1267 C.2            1 RES1               0.0000
      4 C4         141.8186 125.2760 187.7767 C.2            1 RES1               0.0000
      5 C5         141.6907 122.8409 188.2529 C.3            1 RES1               0.0000
      6 C6         144.5547 124.1252 188.3062 C.ar           1 RES1               0.0000
      7 C7         143.9300 124.6790 190.5408 C.ar           1 RES1               0.0000
      8 N8         140.6010 125.6142 190.2708 N.am           1 RES1               0.0000
      9 O9         141.2371 123.5841 191.0131 O.2            1 RES1               0.0000
     10 N10        140.9683 126.3078 188.0768 N.am           1 RES1               0.0000
     11 O11        142.3663 125.2339 186.6819 O.2            1 RES1               0.0000
     12 C12        142.4484 121.6786 188.8751 C.3            1 RES1               0.0000
     13 C13        145.8910 124.2405 188.6515 C.ar           1 RES1               0.0000
     14 C14        145.2670 124.7936 190.8841 C.ar           1 RES1               0.0000
     15 C15        140.3722 126.5413 189.2861 C.2            1 RES1               0.0000
     16 C16        146.2481 124.5752 189.9404 C.ar           1 RES1               0.0000
     17 O17        139.6633 127.5216 189.4953 O.2            1 RES1               0.0000
     18 H18        140.6152 122.6763 188.3924 H              1 RES1               0.0000
     19 H19        141.8905 122.8556 187.1743 H              1 RES1               0.0000
     20 H20        144.2930 123.8586 187.2877 H              1 RES1               0.0000
     21 H21        143.1754 124.8543 191.3000 H              1 RES1               0.0000
     22 H22        140.2453 125.8311 191.1964 H              1 RES1               0.0000
     23 H23        140.7602 126.9623 187.3293 H              1 RES1               0.0000
     24 H24        142.1484 120.7359 188.4222 H              1 RES1               0.0000
     25 H25        143.5206 121.7967 188.7329 H              1 RES1               0.0000
     26 H26        142.2528 121.6186 189.9437 H              1 RES1               0.0000
     27 H27        146.6593 124.0663 187.9055 H              1 RES1               0.0000
     28 H28        145.5434 125.0566 191.8998 H              1 RES1               0.0000
     29 H29        147.2950 124.6658 190.2105 H              1 RES1               0.0000
@<TRIPOS>BOND
    1    1    2 1     
    2    1    3 1     
    3    1    4 1     
    4    1    5 1     
    5    2    6 ar    
    6    2    7 ar    
    7    3    8 1     
    8    3    9 2     
    9    4   10 1     
   10    4   11 2     
   11    5   12 1     
   12    5   18 1     
   13    5   19 1     
   14    6   13 ar    
   15    6   20 1     
   16    7   14 ar    
   17    7   21 1     
   18    8   15 1     
   19    8   22 1     
   20   10   15 1     
   21   10   23 1     
   22   12   24 1     
   23   12   25 1     
   24   12   26 1     
   25   13   16 ar    
   26   13   27 1     
   27   14   16 ar    
   28   14   28 1     
   29   15   17 2     
   30   16   29 1     
@<TRIPOS>SUBSTRUCTURE
      1 RES1           1
@<TRIPOS>SET
DONOR_HYDROGENS      STATIC     ATOMS    <user>   **** ""
2 22 23
ATOM$RED        STATIC     ATOMS    COLORGROUP SYSTEM
2 22 23
@<TRIPOS>COMMENT
> <Gold.Version>
2022.3.0

> <Gold.Id.Protein>
unknown|7rmh_cavity_clean|pdb

> <Gold.Protein.RotatedTorsions>
[ 10338 10331 10329 10326 ] final  -71.29 input   60.01 | X-H torsion
[ 10390 10381 10380 10378 ] final  136.98 input   59.98 | X-H torsion
[ 10359 10350 10349 10347 ] final  -75.62 input   59.97 | X-H torsion

> <Gold.Protein.ActiveResidues>
 ARG228  GLU230  ARG232  MET188  LEU190  ALA208  THR114  TYR115  ALA116  TYR117 
 ARG118  GLY119  GLN120 

> <Gold.Protein.RotatedAtoms>
  146.9098  127.8897  186.3619 H   0  0  0  0  0  0  0  0  0  0  0  0  # atno 10338 bound_to 10331
  136.2486  129.5218  179.1786 H   0  0  0  0  0  0  0  0  0  0  0  0  # atno 10359 bound_to 10350
  137.1453  135.5204  180.1669 H   0  0  0  0  0  0  0  0  0  0  0  0  # atno 10390 bound_to 10381
  147.8970  128.7990  185.4422 LP  0  0  0  0  0  0  0  0  0  0  0  0  # atno 14712 bound_to 10331
  147.3714  127.3521  184.8972 LP  0  0  0  0  0  0  0  0  0  0  0  0  # atno 14713 bound_to 10331
  136.1455  136.0982  181.3133 LP  0  0  0  0  0  0  0  0  0  0  0  0  # atno 14720 bound_to 10381
  135.5593  135.6896  179.8449 LP  0  0  0  0  0  0  0  0  0  0  0  0  # atno 14721 bound_to 10381
  135.7504  127.9728  179.1385 LP  0  0  0  0  0  0  0  0  0  0  0  0  # atno 14734 bound_to 10350
  136.8760  128.4990  178.0789 LP  0  0  0  0  0  0  0  0  0  0  0  0  # atno 14735 bound_to 10350

> <Gold.Score>
     Fitness  S(hb_ext) S(vdw_ext)  S(hb_int)    S(int)      intcor
     15.57       2.70      12.55       0.00      -4.40      -0.78

> <Gold.Goldscore.Fitness>
15.5715

> <Gold.Goldscore.Internal.Vdw>
-3.9200

> <Gold.Goldscore.Internal.Torsion>
-1.2512

> <Gold.Goldscore.External.Vdw>
12.5548

> <Gold.Goldscore.Internal.HBond>
0.0000

> <Gold.Goldscore.External.HBond>
2.7046

> <Gold.Goldscore.Internal.Correction>
-0.7752

> <Gold.Goldscore.Hbonds>
donor molecule, donor type, donor heavy atom, donor atom, acceptor molecule, acceptor atom, score
      P1  H 10401 10414       L1    11  0.08
      P1  H 10339 10351       L1    11  0.51
      L1  H    10    23       P1 10342  0.60

> <Gold.Goldscore.Internal.Vdw.Weighted>
-3.9200

> <Gold.Goldscore.Internal.Torsion.Weighted>
-1.2512

> <Gold.Goldscore.External.Vdw.Weighted>
17.2629

> <Gold.Goldscore.Internal.HBond.Weighted>
0.0000

> <Gold.Goldscore.External.HBond.Weighted>
2.7046

> <Gold.Goldscore.Internal.Correction.Weighted>
-0.7752

> <Gold.Rescore>
     Score     S(PLP)   S(hbond)     S(cho)   S(metal)  DE(clash)   DE(tors)     intcor
     25.07     -21.93       1.79       0.00       0.00       1.36       0.44       ----

> <Gold.PLP.Fitness>
25.0653

> <Gold.PLP.PLP>
-21.9298

> <Gold.PLP.part.hbond>
-2.0000

> <Gold.PLP.part.metal>
0.0000

> <Gold.PLP.part.buried>
-4.0722

> <Gold.PLP.part.nonpolar>
-16.1397

> <Gold.PLP.part.repulsive>
0.1737

> <Gold.PLP.ligand.clash>
1.3639

> <Gold.PLP.ligand.torsion>
0.4383

> <Gold.PLP.Chemscore.Hbond>
1.7920

> <Gold.PLP.Chemscore.CHOScore>
0.0000

> <Gold.PLP.Chemscore.Metal>
0.0000

> <Gold.Chemscore.Hbonds>
donor molecule, donor type, donor heavy atom, donor atom, acceptor molecule, acceptor atom, score
      P1  H 10401 10414       L1    11  0.60

> <Gold.PLP.Chemscore.Internal.Correction>
   9.000000E+99

