#       Name:                CT1002167954
#       Creating user name   hitesit
#       Creation time:       Sun Apr 16 22:56:49 2023


#       File generated by GOLD software.
#

@<TRIPOS>MOLECULE
CT1002167954|ligand_prepared|mol2|1|dock2
    29    30     1
SMALL
NO_CHARGES


@<TRIPOS>ATOM
      1 C1         142.6397 128.5362 141.7456 C.3            1 RES1               0.0000
      2 C2         142.6296 129.9987 142.2351 C.ar           1 RES1               0.0000
      3 C3         141.2793 128.2913 141.0993 C.2            1 RES1               0.0000
      4 C4         143.8162 128.4165 140.7833 C.2            1 RES1               0.0000
      5 C5         142.8400 127.5003 142.8762 C.3            1 RES1               0.0000
      6 C6         141.4446 130.7280 142.2645 C.ar           1 RES1               0.0000
      7 C7         143.7946 130.6303 142.6621 C.ar           1 RES1               0.0000
      8 N8         141.2304 128.2174 139.7384 N.am           1 RES1               0.0000
      9 O9         140.2591 128.2038 141.7714 O.2            1 RES1               0.0000
     10 N10        143.5438 128.1621 139.4646 N.am           1 RES1               0.0000
     11 O11        144.9758 128.5568 141.1519 O.2            1 RES1               0.0000
     12 C12        142.6554 128.0733 144.2726 C.3            1 RES1               0.0000
     13 C13        141.4245 132.0401 142.7075 C.ar           1 RES1               0.0000
     14 C14        143.7723 131.9427 143.1046 C.ar           1 RES1               0.0000
     15 C15        142.3029 128.0876 138.8930 C.2            1 RES1               0.0000
     16 C16        142.5880 132.6481 143.1282 C.ar           1 RES1               0.0000
     17 O17        142.1392 127.9101 137.6893 O.2            1 RES1               0.0000
     18 H18        142.1260 126.6798 142.7340 H              1 RES1               0.0000
     19 H19        143.8512 127.0823 142.7970 H              1 RES1               0.0000
     20 H20        140.5194 130.2670 141.9349 H              1 RES1               0.0000
     21 H21        144.7380 130.0951 142.6512 H              1 RES1               0.0000
     22 H22        140.3115 128.2628 139.3097 H              1 RES1               0.0000
     23 H23        144.3399 128.0145 138.8524 H              1 RES1               0.0000
     24 H24        142.8070 127.3050 145.0279 H              1 RES1               0.0000
     25 H25        143.3668 128.8755 144.4575 H              1 RES1               0.0000
     26 H26        141.6518 128.4754 144.3948 H              1 RES1               0.0000
     27 H27        140.4901 132.5914 142.7229 H              1 RES1               0.0000
     28 H28        144.6906 132.4174 143.4342 H              1 RES1               0.0000
     29 H29        142.5719 133.6759 143.4756 H              1 RES1               0.0000
@<TRIPOS>BOND
    1    1    2 1     
    2    1    3 1     
    3    1    4 1     
    4    1    5 1     
    5    2    6 ar    
    6    2    7 ar    
    7    3    8 1     
    8    3    9 2     
    9    4   10 1     
   10    4   11 2     
   11    5   12 1     
   12    5   18 1     
   13    5   19 1     
   14    6   13 ar    
   15    6   20 1     
   16    7   14 ar    
   17    7   21 1     
   18    8   15 1     
   19    8   22 1     
   20   10   15 1     
   21   10   23 1     
   22   12   24 1     
   23   12   25 1     
   24   12   26 1     
   25   13   16 ar    
   26   13   27 1     
   27   14   16 ar    
   28   14   28 1     
   29   15   17 2     
   30   16   29 1     
@<TRIPOS>SUBSTRUCTURE
      1 RES1           1
@<TRIPOS>SET
DONOR_HYDROGENS      STATIC     ATOMS    <user>   **** ""
2 22 23
ATOM$RED        STATIC     ATOMS    COLORGROUP SYSTEM
2 22 23
@<TRIPOS>COMMENT
> <Gold.Version>
2022.3.0

> <Gold.Id.Protein>
unknown|7rmi_cavity_clean|pdb

> <Gold.Protein.RotatedTorsions>
[ 10523 10518 10517 10514 ] final  -39.31 input   59.99 | X-H torsion
[ 10439 10432 10433 10434 ] final  -75.54 input  118.28 | X-H torsion
[ 10311 10303 10304 10305 ] final -163.16 input  114.60 | X-H torsion
[ 11130 11118 11119 11120 ] final  -31.65 input  109.13 | X-H torsion
[ 11138 11129 11128 11126 ] final  -73.02 input   60.00 | X-H torsion
[ 11928 11921 11919 11916 ] final   39.95 input   60.00 | X-H torsion
[ 12976 12967 12966 12964 ] final   65.03 input   60.00 | X-H torsion

> <Gold.Protein.ActiveResidues>
 ASN392  LEU393  ILE32   VAL41   SER46   TYR92   HIS95   TRP98   ALA133  ILE135 
 HIS136  LEU138  ARG141  THR145  TYR216  VAL219  LEU223  GLN239  VAL252  VAL254 
 CYS255  PHE257  ALA258  TRP261  LEU262  ILE266  MET299  PRO302  ILE303  CYS306 
 CYS307 

> <Gold.Protein.RotatedAtoms>
  111.4917  136.0296   97.9678 H   0  0  0  0  0  0  0  0  0  0  0  0  # atno 10311 bound_to 10303
  113.3477  136.7775  112.3992 H   0  0  0  0  0  0  0  0  0  0  0  0  # atno 10439 bound_to 10432
  122.1983  137.1308  118.2590 H   0  0  0  0  0  0  0  0  0  0  0  0  # atno 10523 bound_to 10518
  119.5668  144.0299  101.7392 H   0  0  0  0  0  0  0  0  0  0  0  0  # atno 11130 bound_to 11118
  125.6123  145.2611   95.4970 H   0  0  0  0  0  0  0  0  0  0  0  0  # atno 11138 bound_to 11129
  145.0912  144.1367  135.7567 H   0  0  0  0  0  0  0  0  0  0  0  0  # atno 11928 bound_to 11921
  135.5100  126.5177  124.2413 H   0  0  0  0  0  0  0  0  0  0  0  0  # atno 12976 bound_to 12967
  122.5917  136.8920  116.6983 LP  0  0  0  0  0  0  0  0  0  0  0  0  # atno 14322 bound_to 10518
  122.6256  135.6449  117.7520 LP  0  0  0  0  0  0  0  0  0  0  0  0  # atno 14323 bound_to 10518
  126.9188  145.2652   96.4671 LP  0  0  0  0  0  0  0  0  0  0  0  0  # atno 14344 bound_to 11129
  126.1206  146.6567   96.1618 LP  0  0  0  0  0  0  0  0  0  0  0  0  # atno 14345 bound_to 11129
  145.7545  145.3921  134.9618 LP  0  0  0  0  0  0  0  0  0  0  0  0  # atno 14348 bound_to 11921
  146.6730  144.4682  135.9463 LP  0  0  0  0  0  0  0  0  0  0  0  0  # atno 14349 bound_to 11921
  134.4433  125.7044  125.1620 LP  0  0  0  0  0  0  0  0  0  0  0  0  # atno 14354 bound_to 12967
  134.0621  126.1041  123.6253 LP  0  0  0  0  0  0  0  0  0  0  0  0  # atno 14355 bound_to 12967

> <Gold.Score>
     Fitness  S(hb_ext) S(vdw_ext)  S(hb_int)    S(int)      intcor
     15.22       0.29      21.77       0.00     -14.99      -0.76

> <Gold.Goldscore.Fitness>
15.2239

> <Gold.Goldscore.Internal.Vdw>
-13.2519

> <Gold.Goldscore.Internal.Torsion>
-2.4995

> <Gold.Goldscore.External.Vdw>
21.7652

> <Gold.Goldscore.Internal.HBond>
0.0000

> <Gold.Goldscore.External.HBond>
0.2896

> <Gold.Goldscore.Internal.Correction>
-0.7585

> <Gold.Goldscore.Hbonds>
donor molecule, donor type, donor heavy atom, donor atom, acceptor molecule, acceptor atom, score
      L1  H     8    22       P1 11804  0.14

> <Gold.Goldscore.Internal.Vdw.Weighted>
-13.2519

> <Gold.Goldscore.Internal.Torsion.Weighted>
-2.4995

> <Gold.Goldscore.External.Vdw.Weighted>
29.9271

> <Gold.Goldscore.Internal.HBond.Weighted>
0.0000

> <Gold.Goldscore.External.HBond.Weighted>
0.2896

> <Gold.Goldscore.Internal.Correction.Weighted>
-0.7585

> <Gold.Rescore>
     Score     S(PLP)   S(hbond)     S(cho)   S(metal)  DE(clash)   DE(tors)     intcor
     17.73     -22.10       0.00       0.00       0.00       1.59       1.39       ----

> <Gold.PLP.Fitness>
17.7266

> <Gold.PLP.PLP>
-22.1009

> <Gold.PLP.part.hbond>
-3.3127

> <Gold.PLP.part.metal>
0.0000

> <Gold.PLP.part.buried>
-5.2058

> <Gold.PLP.part.nonpolar>
-14.8480

> <Gold.PLP.part.repulsive>
0.8818

> <Gold.PLP.ligand.clash>
1.5873

> <Gold.PLP.ligand.torsion>
1.3935

> <Gold.PLP.Chemscore.Hbond>
0.0000

> <Gold.PLP.Chemscore.CHOScore>
0.0000

> <Gold.PLP.Chemscore.Metal>
0.0000

> <Gold.PLP.Chemscore.Internal.Correction>
   9.000000E+99

#       Name:                CT1002167954
#       Creating user name   hitesit
#       Creation time:       Sun Apr 16 22:57:02 2023


#       File generated by GOLD software.
#

@<TRIPOS>MOLECULE
CT1002167954|ligand_prepared|mol2|1|dock10
    29    30     1
SMALL
NO_CHARGES


@<TRIPOS>ATOM
      1 C1         143.6897 130.4746 132.0830 C.3            1 RES1               0.0000
      2 C2         145.1795 130.2697 132.4257 C.ar           1 RES1               0.0000
      3 C3         143.3632 131.9218 132.4397 C.2            1 RES1               0.0000
      4 C4         143.5448 130.1514 130.6001 C.2            1 RES1               0.0000
      5 C5         142.7343 129.5473 132.8697 C.3            1 RES1               0.0000
      6 C6         145.5639 129.3410 133.3883 C.ar           1 RES1               0.0000
      7 C7         146.1791 130.9987 131.7871 C.ar           1 RES1               0.0000
      8 N8         143.2015 132.8045 131.4128 N.am           1 RES1               0.0000
      9 O9         143.2878 132.2914 133.6050 O.2            1 RES1               0.0000
     10 N10        143.1989 131.1704 129.7516 N.am           1 RES1               0.0000
     11 O11        143.7432 129.0271 130.1563 O.2            1 RES1               0.0000
     12 C12        141.3052 130.0610 132.9449 C.3            1 RES1               0.0000
     13 C13        146.8995 129.1460 133.6991 C.ar           1 RES1               0.0000
     14 C14        147.5141 130.8022 132.0995 C.ar           1 RES1               0.0000
     15 C15        143.0507 132.4888 130.0864 C.2            1 RES1               0.0000
     16 C16        147.8754 129.8760 133.0547 C.ar           1 RES1               0.0000
     17 O17        142.7921 133.3563 129.2571 O.2            1 RES1               0.0000
     18 H18        142.7298 128.5591 132.3934 H              1 RES1               0.0000
     19 H19        143.1201 129.4261 133.8895 H              1 RES1               0.0000
     20 H20        144.8098 128.7590 133.9076 H              1 RES1               0.0000
     21 H21        145.9182 131.7335 131.0331 H              1 RES1               0.0000
     22 H22        143.1918 133.7906 131.6532 H              1 RES1               0.0000
     23 H23        143.0368 130.9231 128.7806 H              1 RES1               0.0000
     24 H24        140.6772 129.3733 133.5073 H              1 RES1               0.0000
     25 H25        141.2694 131.0313 133.4359 H              1 RES1               0.0000
     26 H26        140.8814 130.1694 131.9487 H              1 RES1               0.0000
     27 H27        147.1785 128.4168 134.4525 H              1 RES1               0.0000
     28 H28        148.2788 131.3794 131.5903 H              1 RES1               0.0000
     29 H29        148.9216 129.7228 133.2981 H              1 RES1               0.0000
@<TRIPOS>BOND
    1    1    2 1     
    2    1    3 1     
    3    1    4 1     
    4    1    5 1     
    5    2    6 ar    
    6    2    7 ar    
    7    3    8 1     
    8    3    9 2     
    9    4   10 1     
   10    4   11 2     
   11    5   12 1     
   12    5   18 1     
   13    5   19 1     
   14    6   13 ar    
   15    6   20 1     
   16    7   14 ar    
   17    7   21 1     
   18    8   15 1     
   19    8   22 1     
   20   10   15 1     
   21   10   23 1     
   22   12   24 1     
   23   12   25 1     
   24   12   26 1     
   25   13   16 ar    
   26   13   27 1     
   27   14   16 ar    
   28   14   28 1     
   29   15   17 2     
   30   16   29 1     
@<TRIPOS>SUBSTRUCTURE
      1 RES1           1
@<TRIPOS>SET
DONOR_HYDROGENS      STATIC     ATOMS    <user>   **** ""
2 22 23
ATOM$RED        STATIC     ATOMS    COLORGROUP SYSTEM
2 22 23
@<TRIPOS>COMMENT
> <Gold.Version>
2022.3.0

> <Gold.Id.Protein>
unknown|7rmi_cavity_clean|pdb

> <Gold.Protein.RotatedTorsions>
[ 10523 10518 10517 10514 ] final  113.77 input   59.99 | X-H torsion
[ 10439 10432 10433 10434 ] final  -25.07 input  118.28 | X-H torsion
[ 10311 10303 10304 10305 ] final  168.66 input  114.60 | X-H torsion
[ 11130 11118 11119 11120 ] final -124.21 input  109.13 | X-H torsion
[ 11138 11129 11128 11126 ] final  -24.48 input   60.00 | X-H torsion
[ 11928 11921 11919 11916 ] final  -34.53 input   60.00 | X-H torsion
[ 12976 12967 12966 12964 ] final  -79.64 input   60.00 | X-H torsion

> <Gold.Protein.ActiveResidues>
 ASN392  LEU393  ILE32   VAL41   SER46   TYR92   HIS95   TRP98   ALA133  ILE135 
 HIS136  LEU138  ARG141  THR145  TYR216  VAL219  LEU223  GLN239  VAL252  VAL254 
 CYS255  PHE257  ALA258  TRP261  LEU262  ILE266  MET299  PRO302  ILE303  CYS306 
 CYS307 

> <Gold.Protein.RotatedAtoms>
  111.1854  136.2834   97.8019 H   0  0  0  0  0  0  0  0  0  0  0  0  # atno 10311 bound_to 10303
  114.0084  136.5051  112.1580 H   0  0  0  0  0  0  0  0  0  0  0  0  # atno 10439 bound_to 10432
  122.7209  135.7219  117.2314 H   0  0  0  0  0  0  0  0  0  0  0  0  # atno 10523 bound_to 10518
  119.8861  145.1999  102.1168 H   0  0  0  0  0  0  0  0  0  0  0  0  # atno 11130 bound_to 11118
  125.4731  146.0163   95.5499 H   0  0  0  0  0  0  0  0  0  0  0  0  # atno 11138 bound_to 11129
  145.1308  145.0330  135.0647 H   0  0  0  0  0  0  0  0  0  0  0  0  # atno 11928 bound_to 11921
  134.1192  125.6417  124.9336 H   0  0  0  0  0  0  0  0  0  0  0  0  # atno 12976 bound_to 12967
  122.2532  136.6489  118.4842 LP  0  0  0  0  0  0  0  0  0  0  0  0  # atno 14322 bound_to 10518
  122.4376  137.3075  117.0014 LP  0  0  0  0  0  0  0  0  0  0  0  0  # atno 14323 bound_to 10518
  126.4599  144.8159   96.0329 LP  0  0  0  0  0  0  0  0  0  0  0  0  # atno 14344 bound_to 11129
  126.7198  146.3453   96.5427 LP  0  0  0  0  0  0  0  0  0  0  0  0  # atno 14345 bound_to 11129
  146.6985  145.0452  135.5009 LP  0  0  0  0  0  0  0  0  0  0  0  0  # atno 14348 bound_to 11921
  145.6891  143.9123  136.1043 LP  0  0  0  0  0  0  0  0  0  0  0  0  # atno 14349 bound_to 11921
  134.3762  126.3019  123.4689 LP  0  0  0  0  0  0  0  0  0  0  0  0  # atno 14354 bound_to 12967
  135.5302  126.3889  124.6210 LP  0  0  0  0  0  0  0  0  0  0  0  0  # atno 14355 bound_to 12967

> <Gold.Score>
     Fitness  S(hb_ext) S(vdw_ext)  S(hb_int)    S(int)      intcor
     10.70       0.00       9.44       0.00      -2.27      -0.76

> <Gold.Goldscore.Fitness>
10.7027

> <Gold.Goldscore.Internal.Vdw>
-2.6345

> <Gold.Goldscore.Internal.Torsion>
-0.3956

> <Gold.Goldscore.External.Vdw>
9.4358

> <Gold.Goldscore.Internal.HBond>
0.0000

> <Gold.Goldscore.External.HBond>
0.0000

> <Gold.Goldscore.Internal.Correction>
-0.7585

> <Gold.Goldscore.Internal.Vdw.Weighted>
-2.6345

> <Gold.Goldscore.Internal.Torsion.Weighted>
-0.3956

> <Gold.Goldscore.External.Vdw.Weighted>
12.9742

> <Gold.Goldscore.Internal.HBond.Weighted>
0.0000

> <Gold.Goldscore.External.HBond.Weighted>
0.0000

> <Gold.Goldscore.Internal.Correction.Weighted>
-0.7585

> <Gold.Rescore>
     Score     S(PLP)   S(hbond)     S(cho)   S(metal)  DE(clash)   DE(tors)     intcor
     13.47     -14.13       0.00       0.00       0.00       0.00       0.33       ----

> <Gold.PLP.Fitness>
13.4675

> <Gold.PLP.PLP>
-14.1324

> <Gold.PLP.part.hbond>
-0.9863

> <Gold.PLP.part.metal>
0.0000

> <Gold.PLP.part.buried>
24.1122

> <Gold.PLP.part.nonpolar>
-43.2924

> <Gold.PLP.part.repulsive>
4.2000

> <Gold.PLP.ligand.clash>
0.0000

> <Gold.PLP.ligand.torsion>
0.3325

> <Gold.PLP.Chemscore.Hbond>
0.0000

> <Gold.PLP.Chemscore.CHOScore>
0.0000

> <Gold.PLP.Chemscore.Metal>
0.0000

> <Gold.PLP.Chemscore.Internal.Correction>
   9.000000E+99

#       Name:                CT1002167954
#       Creating user name   hitesit
#       Creation time:       Sun Apr 16 22:56:52 2023


#       File generated by GOLD software.
#

@<TRIPOS>MOLECULE
CT1002167954|ligand_prepared|mol2|1|dock4
    29    30     1
SMALL
NO_CHARGES


@<TRIPOS>ATOM
      1 C1         141.6309 129.7144 139.8333 C.3            1 RES1               0.0000
      2 C2         140.7465 129.0852 140.9291 C.ar           1 RES1               0.0000
      3 C3         142.8605 128.8195 139.7088 C.2            1 RES1               0.0000
      4 C4         140.7733 129.7722 138.5740 C.2            1 RES1               0.0000
      5 C5         142.1003 131.1517 140.1580 C.3            1 RES1               0.0000
      6 C6         139.4337 129.5098 141.1108 C.ar           1 RES1               0.0000
      7 C7         141.2278 128.0793 141.7628 C.ar           1 RES1               0.0000
      8 N8         142.9478 128.0149 138.6111 N.am           1 RES1               0.0000
      9 O9         143.7211 128.7912 140.5799 O.2            1 RES1               0.0000
     10 N10        141.1477 128.9992 137.5062 N.am           1 RES1               0.0000
     11 O11        139.7674 130.4674 138.5025 O.2            1 RES1               0.0000
     12 C12        142.8550 131.2679 141.4729 C.3            1 RES1               0.0000
     13 C13        138.6301 128.9472 142.0885 C.ar           1 RES1               0.0000
     14 C14        140.4225 127.5181 142.7401 C.ar           1 RES1               0.0000
     15 C15        142.1786 128.0999 137.4785 C.2            1 RES1               0.0000
     16 C16        139.1237 127.9507 142.9034 C.ar           1 RES1               0.0000
     17 O17        142.4197 127.4008 136.4985 O.2            1 RES1               0.0000
     18 H18        142.7490 131.5031 139.3462 H              1 RES1               0.0000
     19 H19        141.2233 131.8097 140.1950 H              1 RES1               0.0000
     20 H20        139.0287 130.2946 140.4806 H              1 RES1               0.0000
     21 H21        142.2467 127.7239 141.6532 H              1 RES1               0.0000
     22 H22        143.6498 127.2821 138.6346 H              1 RES1               0.0000
     23 H23        140.6080 129.1040 136.6530 H              1 RES1               0.0000
     24 H24        143.1614 132.2963 141.6522 H              1 RES1               0.0000
     25 H25        142.2307 130.9502 142.3054 H              1 RES1               0.0000
     26 H26        143.7474 130.6455 141.4617 H              1 RES1               0.0000
     27 H27        137.6091 129.2921 142.2139 H              1 RES1               0.0000
     28 H28        140.8153 126.7345 143.3796 H              1 RES1               0.0000
     29 H29        138.4938 127.5098 143.6690 H              1 RES1               0.0000
@<TRIPOS>BOND
    1    1    2 1     
    2    1    3 1     
    3    1    4 1     
    4    1    5 1     
    5    2    6 ar    
    6    2    7 ar    
    7    3    8 1     
    8    3    9 2     
    9    4   10 1     
   10    4   11 2     
   11    5   12 1     
   12    5   18 1     
   13    5   19 1     
   14    6   13 ar    
   15    6   20 1     
   16    7   14 ar    
   17    7   21 1     
   18    8   15 1     
   19    8   22 1     
   20   10   15 1     
   21   10   23 1     
   22   12   24 1     
   23   12   25 1     
   24   12   26 1     
   25   13   16 ar    
   26   13   27 1     
   27   14   16 ar    
   28   14   28 1     
   29   15   17 2     
   30   16   29 1     
@<TRIPOS>SUBSTRUCTURE
      1 RES1           1
@<TRIPOS>SET
DONOR_HYDROGENS      STATIC     ATOMS    <user>   **** ""
2 22 23
ATOM$RED        STATIC     ATOMS    COLORGROUP SYSTEM
2 22 23
@<TRIPOS>COMMENT
> <Gold.Version>
2022.3.0

> <Gold.Id.Protein>
unknown|7rmi_cavity_clean|pdb

> <Gold.Protein.RotatedTorsions>
[ 10523 10518 10517 10514 ] final   22.39 input   59.99 | X-H torsion
[ 10439 10432 10433 10434 ] final  105.93 input  118.28 | X-H torsion
[ 10311 10303 10304 10305 ] final -126.37 input  114.60 | X-H torsion
[ 11130 11118 11119 11120 ] final   -4.42 input  109.13 | X-H torsion
[ 11138 11129 11128 11126 ] final -133.67 input   60.00 | X-H torsion
[ 11928 11921 11919 11916 ] final  -33.61 input   60.00 | X-H torsion
[ 12976 12967 12966 12964 ] final -137.12 input   60.00 | X-H torsion

> <Gold.Protein.ActiveResidues>
 ASN392  LEU393  ILE32   VAL41   SER46   TYR92   HIS95   TRP98   ALA133  ILE135 
 HIS136  LEU138  ARG141  THR145  TYR216  VAL219  LEU223  GLN239  VAL252  VAL254 
 CYS255  PHE257  ALA258  TRP261  LEU262  ILE266  MET299  PRO302  ILE303  CYS306 
 CYS307 

> <Gold.Protein.RotatedAtoms>
  111.6349  135.6590   98.3603 H   0  0  0  0  0  0  0  0  0  0  0  0  # atno 10311 bound_to 10303
  113.2147  135.4108  111.2835 H   0  0  0  0  0  0  0  0  0  0  0  0  # atno 10439 bound_to 10432
  122.3582  136.1998  118.4290 H   0  0  0  0  0  0  0  0  0  0  0  0  # atno 10523 bound_to 10518
  119.8106  143.7086  101.8309 H   0  0  0  0  0  0  0  0  0  0  0  0  # atno 11130 bound_to 11118
  126.3184  144.8030   95.9271 H   0  0  0  0  0  0  0  0  0  0  0  0  # atno 11138 bound_to 11129
  145.1216  145.0224  135.0704 H   0  0  0  0  0  0  0  0  0  0  0  0  # atno 11928 bound_to 11921
  133.8183  125.8153  124.1033 H   0  0  0  0  0  0  0  0  0  0  0  0  # atno 12976 bound_to 12967
  122.3114  137.4738  117.4180 LP  0  0  0  0  0  0  0  0  0  0  0  0  # atno 14322 bound_to 10518
  122.7448  136.0012  116.8610 LP  0  0  0  0  0  0  0  0  0  0  0  0  # atno 14323 bound_to 10518
  126.8181  146.2042   96.5865 LP  0  0  0  0  0  0  0  0  0  0  0  0  # atno 14344 bound_to 11129
  125.5101  146.1791   95.6091 LP  0  0  0  0  0  0  0  0  0  0  0  0  # atno 14345 bound_to 11129
  146.6932  145.0557  135.4912 LP  0  0  0  0  0  0  0  0  0  0  0  0  # atno 14348 bound_to 11921
  145.7038  143.9125  136.1083 LP  0  0  0  0  0  0  0  0  0  0  0  0  # atno 14349 bound_to 11921
  135.2031  126.5777  123.7183 LP  0  0  0  0  0  0  0  0  0  0  0  0  # atno 14354 bound_to 12967
  135.0065  125.9382  125.2079 LP  0  0  0  0  0  0  0  0  0  0  0  0  # atno 14355 bound_to 12967

> <Gold.Score>
     Fitness  S(hb_ext) S(vdw_ext)  S(hb_int)    S(int)      intcor
      7.57       0.00      16.12       0.00     -14.59      -0.76

> <Gold.Goldscore.Fitness>
7.5744

> <Gold.Goldscore.Internal.Vdw>
-13.6588

> <Gold.Goldscore.Internal.Torsion>
-1.6852

> <Gold.Goldscore.External.Vdw>
16.1162

> <Gold.Goldscore.Internal.HBond>
0.0000

> <Gold.Goldscore.External.HBond>
0.0000

> <Gold.Goldscore.Internal.Correction>
-0.7585

> <Gold.Goldscore.Internal.Vdw.Weighted>
-13.6588

> <Gold.Goldscore.Internal.Torsion.Weighted>
-1.6852

> <Gold.Goldscore.External.Vdw.Weighted>
22.1598

> <Gold.Goldscore.Internal.HBond.Weighted>
0.0000

> <Gold.Goldscore.External.HBond.Weighted>
0.0000

> <Gold.Goldscore.Internal.Correction.Weighted>
-0.7585

> <Gold.Rescore>
     Score     S(PLP)   S(hbond)     S(cho)   S(metal)  DE(clash)   DE(tors)     intcor
     30.34     -32.13       0.00       0.00       0.00       0.86       0.46       ----

> <Gold.PLP.Fitness>
30.3447

> <Gold.PLP.PLP>
-32.1265

> <Gold.PLP.part.hbond>
-2.1491

> <Gold.PLP.part.metal>
0.0000

> <Gold.PLP.part.buried>
-7.6018

> <Gold.PLP.part.nonpolar>
-23.9118

> <Gold.PLP.part.repulsive>
0.8397

> <Gold.PLP.ligand.clash>
0.8574

> <Gold.PLP.ligand.torsion>
0.4622

> <Gold.PLP.Chemscore.Hbond>
0.0000

> <Gold.PLP.Chemscore.CHOScore>
0.0000

> <Gold.PLP.Chemscore.Metal>
0.0000

> <Gold.PLP.Chemscore.Internal.Correction>
   9.000000E+99

#       Name:                CT1002167954
#       Creating user name   hitesit
#       Creation time:       Sun Apr 16 22:56:50 2023


#       File generated by GOLD software.
#

@<TRIPOS>MOLECULE
CT1002167954|ligand_prepared|mol2|1|dock3
    29    30     1
SMALL
NO_CHARGES


@<TRIPOS>ATOM
      1 C1         146.1682 130.9703 122.0073 C.3            1 RES1               0.0000
      2 C2         145.9522 129.4949 122.4015 C.ar           1 RES1               0.0000
      3 C3         145.2210 131.7897 122.8789 C.2            1 RES1               0.0000
      4 C4         147.6450 131.2640 122.2469 C.2            1 RES1               0.0000
      5 C5         145.8556 131.2727 120.5233 C.3            1 RES1               0.0000
      6 C6         147.0388 128.6566 122.6320 C.ar           1 RES1               0.0000
      7 C7         144.6745 128.9594 122.5408 C.ar           1 RES1               0.0000
      8 N8         145.7660 132.5078 123.9022 N.am           1 RES1               0.0000
      9 O9         144.0100 131.7748 122.6956 O.2            1 RES1               0.0000
     10 N10        147.9696 132.1660 123.2261 N.am           1 RES1               0.0000
     11 O11        148.5310 130.7102 121.6079 O.2            1 RES1               0.0000
     12 C12        145.0267 130.1967 119.8396 C.3            1 RES1               0.0000
     13 C13        146.8550 127.3318 122.9917 C.ar           1 RES1               0.0000
     14 C14        144.4929 127.6342 122.9004 C.ar           1 RES1               0.0000
     15 C15        147.0983 132.7781 124.0854 C.2            1 RES1               0.0000
     16 C16        145.5821 126.8199 123.1266 C.ar           1 RES1               0.0000
     17 O17        147.4713 133.5358 124.9764 O.2            1 RES1               0.0000
     18 H18        145.3156 132.2257 120.4633 H              1 RES1               0.0000
     19 H19        146.8014 131.3884 119.9797 H              1 RES1               0.0000
     20 H20        148.0480 129.0412 122.5283 H              1 RES1               0.0000
     21 H21        143.8029 129.5812 122.3668 H              1 RES1               0.0000
     22 H22        145.1236 132.8779 124.5955 H              1 RES1               0.0000
     23 H23        148.9518 132.4031 123.3235 H              1 RES1               0.0000
     24 H24        144.8361 130.4584 118.8009 H              1 RES1               0.0000
     25 H25        145.5451 129.2403 119.8585 H              1 RES1               0.0000
     26 H26        144.0682 130.0726 120.3393 H              1 RES1               0.0000
     27 H27        147.7155 126.6947 123.1673 H              1 RES1               0.0000
     28 H28        143.4892 127.2354 123.0047 H              1 RES1               0.0000
     29 H29        145.4383 125.7821 123.4087 H              1 RES1               0.0000
@<TRIPOS>BOND
    1    1    2 1     
    2    1    3 1     
    3    1    4 1     
    4    1    5 1     
    5    2    6 ar    
    6    2    7 ar    
    7    3    8 1     
    8    3    9 2     
    9    4   10 1     
   10    4   11 2     
   11    5   12 1     
   12    5   18 1     
   13    5   19 1     
   14    6   13 ar    
   15    6   20 1     
   16    7   14 ar    
   17    7   21 1     
   18    8   15 1     
   19    8   22 1     
   20   10   15 1     
   21   10   23 1     
   22   12   24 1     
   23   12   25 1     
   24   12   26 1     
   25   13   16 ar    
   26   13   27 1     
   27   14   16 ar    
   28   14   28 1     
   29   15   17 2     
   30   16   29 1     
@<TRIPOS>SUBSTRUCTURE
      1 RES1           1
@<TRIPOS>SET
DONOR_HYDROGENS      STATIC     ATOMS    <user>   **** ""
2 22 23
ATOM$RED        STATIC     ATOMS    COLORGROUP SYSTEM
2 22 23
@<TRIPOS>COMMENT
> <Gold.Version>
2022.3.0

> <Gold.Id.Protein>
unknown|7rmi_cavity_clean|pdb

> <Gold.Protein.RotatedTorsions>
[ 10523 10518 10517 10514 ] final   54.00 input   59.99 | X-H torsion
[ 10439 10432 10433 10434 ] final -136.02 input  118.28 | X-H torsion
[ 10311 10303 10304 10305 ] final  -77.13 input  114.60 | X-H torsion
[ 11130 11118 11119 11120 ] final  -48.39 input  109.13 | X-H torsion
[ 11138 11129 11128 11126 ] final  113.88 input   60.00 | X-H torsion
[ 11928 11921 11919 11916 ] final  135.59 input   60.00 | X-H torsion
[ 12976 12967 12966 12964 ] final  -95.04 input   60.00 | X-H torsion

> <Gold.Protein.ActiveResidues>
 ASN392  LEU393  ILE32   VAL41   SER46   TYR92   HIS95   TRP98   ALA133  ILE135 
 HIS136  LEU138  ARG141  THR145  TYR216  VAL219  LEU223  GLN239  VAL252  VAL254 
 CYS255  PHE257  ALA258  TRP261  LEU262  ILE266  MET299  PRO302  ILE303  CYS306 
 CYS307 

> <Gold.Protein.RotatedAtoms>
  111.3101  135.3285   98.9340 H   0  0  0  0  0  0  0  0  0  0  0  0  # atno 10311 bound_to 10303
  112.5514  136.4574  112.1588 H   0  0  0  0  0  0  0  0  0  0  0  0  # atno 10439 bound_to 10432
  122.5050  135.8104  118.1344 H   0  0  0  0  0  0  0  0  0  0  0  0  # atno 10523 bound_to 10518
  119.4875  144.2732  101.7319 H   0  0  0  0  0  0  0  0  0  0  0  0  # atno 11130 bound_to 11118
  126.8687  146.0923   96.6030 H   0  0  0  0  0  0  0  0  0  0  0  0  # atno 11138 bound_to 11129
  146.4355  144.1883  136.0963 H   0  0  0  0  0  0  0  0  0  0  0  0  # atno 11928 bound_to 11921
  133.9635  125.6452  124.7370 H   0  0  0  0  0  0  0  0  0  0  0  0  # atno 12976 bound_to 12967
  122.2186  137.3973  117.9173 LP  0  0  0  0  0  0  0  0  0  0  0  0  # atno 14322 bound_to 10518
  122.6898  136.4699  116.6585 LP  0  0  0  0  0  0  0  0  0  0  0  0  # atno 14323 bound_to 10518
  125.5539  146.2818   95.6629 LP  0  0  0  0  0  0  0  0  0  0  0  0  # atno 14344 bound_to 11129
  126.2199  144.8028   95.8518 LP  0  0  0  0  0  0  0  0  0  0  0  0  # atno 14345 bound_to 11129
  144.9337  144.4014  135.5070 LP  0  0  0  0  0  0  0  0  0  0  0  0  # atno 14348 bound_to 11921
  146.1398  145.4070  135.0591 LP  0  0  0  0  0  0  0  0  0  0  0  0  # atno 14349 bound_to 11921
  134.6040  126.4098  123.4516 LP  0  0  0  0  0  0  0  0  0  0  0  0  # atno 14354 bound_to 12967
  135.4593  126.2776  124.8363 LP  0  0  0  0  0  0  0  0  0  0  0  0  # atno 14355 bound_to 12967

> <Gold.Score>
     Fitness  S(hb_ext) S(vdw_ext)  S(hb_int)    S(int)      intcor
      5.03       0.00      19.69       0.00     -22.05      -0.76

> <Gold.Goldscore.Fitness>
5.0295

> <Gold.Goldscore.Internal.Vdw>
-20.3150

> <Gold.Goldscore.Internal.Torsion>
-2.4938

> <Gold.Goldscore.External.Vdw>
19.6944

> <Gold.Goldscore.Internal.HBond>
0.0000

> <Gold.Goldscore.External.HBond>
0.0000

> <Gold.Goldscore.Internal.Correction>
-0.7585

> <Gold.Goldscore.Internal.Vdw.Weighted>
-20.3150

> <Gold.Goldscore.Internal.Torsion.Weighted>
-2.4938

> <Gold.Goldscore.External.Vdw.Weighted>
27.0798

> <Gold.Goldscore.Internal.HBond.Weighted>
0.0000

> <Gold.Goldscore.External.HBond.Weighted>
0.0000

> <Gold.Goldscore.Internal.Correction.Weighted>
-0.7585

> <Gold.Rescore>
     Score     S(PLP)   S(hbond)     S(cho)   S(metal)  DE(clash)   DE(tors)     intcor
     19.82     -24.93       0.00       0.00       0.00       2.38       1.36       ----

> <Gold.PLP.Fitness>
19.8238

> <Gold.PLP.PLP>
-24.9289

> <Gold.PLP.part.hbond>
0.0000

> <Gold.PLP.part.metal>
0.0000

> <Gold.PLP.part.buried>
-2.6612

> <Gold.PLP.part.nonpolar>
-22.5063

> <Gold.PLP.part.repulsive>
0.0579

> <Gold.PLP.ligand.clash>
2.3751

> <Gold.PLP.ligand.torsion>
1.3650

> <Gold.PLP.Chemscore.Hbond>
0.0000

> <Gold.PLP.Chemscore.CHOScore>
0.0000

> <Gold.PLP.Chemscore.Metal>
0.0000

> <Gold.PLP.Chemscore.Internal.Correction>
   9.000000E+99

#       Name:                CT1002167954
#       Creating user name   hitesit
#       Creation time:       Sun Apr 16 22:56:47 2023


#       File generated by GOLD software.
#

@<TRIPOS>MOLECULE
CT1002167954|ligand_prepared|mol2|1|dock1
    29    30     1
SMALL
NO_CHARGES


@<TRIPOS>ATOM
      1 C1         131.4636 132.2133 124.9485 C.3            1 RES1               0.0000
      2 C2         130.1801 133.0496 124.7689 C.ar           1 RES1               0.0000
      3 C3         132.0142 131.9672 123.5469 C.2            1 RES1               0.0000
      4 C4         132.3855 133.0337 125.8439 C.2            1 RES1               0.0000
      5 C5         131.2278 130.8457 125.6308 C.3            1 RES1               0.0000
      6 C6         129.2777 132.7530 123.7518 C.ar           1 RES1               0.0000
      7 C7         129.8842 134.1170 125.6125 C.ar           1 RES1               0.0000
      8 N8         133.1244 132.6654 123.1726 N.am           1 RES1               0.0000
      9 O9         131.4598 131.2017 122.7678 O.2            1 RES1               0.0000
     10 N10        133.5557 133.5004 125.3048 N.am           1 RES1               0.0000
     11 O11        132.1012 133.2943 127.0065 O.2            1 RES1               0.0000
     12 C12        132.4898 130.2213 126.2050 C.3            1 RES1               0.0000
     13 C13        128.1198 133.4947 123.5859 C.ar           1 RES1               0.0000
     14 C14        128.7258 134.8575 125.4446 C.ar           1 RES1               0.0000
     15 C15        133.9524 133.3794 124.0009 C.2            1 RES1               0.0000
     16 C16        127.8429 134.5470 124.4323 C.ar           1 RES1               0.0000
     17 O17        134.9937 133.8736 123.5783 O.2            1 RES1               0.0000
     18 H18        130.4986 130.9758 126.4398 H              1 RES1               0.0000
     19 H19        130.7947 130.1549 124.8968 H              1 RES1               0.0000
     20 H20        129.4800 131.9300 123.0745 H              1 RES1               0.0000
     21 H21        130.5648 134.3801 126.4151 H              1 RES1               0.0000
     22 H22        133.3607 132.6557 122.1855 H              1 RES1               0.0000
     23 H23        134.1898 133.9826 125.9339 H              1 RES1               0.0000
     24 H24        132.2684 129.2639 126.6719 H              1 RES1               0.0000
     25 H25        133.2279 130.0546 125.4232 H              1 RES1               0.0000
     26 H26        132.9335 130.8705 126.9571 H              1 RES1               0.0000
     27 H27        127.4289 133.2471 122.7868 H              1 RES1               0.0000
     28 H28        128.5121 135.6853 126.1127 H              1 RES1               0.0000
     29 H29        126.9355 135.1277 124.3024 H              1 RES1               0.0000
@<TRIPOS>BOND
    1    1    2 1     
    2    1    3 1     
    3    1    4 1     
    4    1    5 1     
    5    2    6 ar    
    6    2    7 ar    
    7    3    8 1     
    8    3    9 2     
    9    4   10 1     
   10    4   11 2     
   11    5   12 1     
   12    5   18 1     
   13    5   19 1     
   14    6   13 ar    
   15    6   20 1     
   16    7   14 ar    
   17    7   21 1     
   18    8   15 1     
   19    8   22 1     
   20   10   15 1     
   21   10   23 1     
   22   12   24 1     
   23   12   25 1     
   24   12   26 1     
   25   13   16 ar    
   26   13   27 1     
   27   14   16 ar    
   28   14   28 1     
   29   15   17 2     
   30   16   29 1     
@<TRIPOS>SUBSTRUCTURE
      1 RES1           1
@<TRIPOS>SET
DONOR_HYDROGENS      STATIC     ATOMS    <user>   **** ""
2 22 23
ATOM$RED        STATIC     ATOMS    COLORGROUP SYSTEM
2 22 23
@<TRIPOS>COMMENT
> <Gold.Version>
2022.3.0

> <Gold.Id.Protein>
unknown|7rmi_cavity_clean|pdb

> <Gold.Protein.RotatedTorsions>
[ 10523 10518 10517 10514 ] final    6.55 input   59.99 | X-H torsion
[ 10439 10432 10433 10434 ] final  146.41 input  118.28 | X-H torsion
[ 10311 10303 10304 10305 ] final -151.18 input  114.60 | X-H torsion
[ 11130 11118 11119 11120 ] final  114.76 input  109.13 | X-H torsion
[ 11138 11129 11128 11126 ] final   -7.50 input   60.00 | X-H torsion
[ 11928 11921 11919 11916 ] final   24.84 input   60.00 | X-H torsion
[ 12976 12967 12966 12964 ] final  -60.94 input   60.00 | X-H torsion

> <Gold.Protein.ActiveResidues>
 ASN392  LEU393  ILE32   VAL41   SER46   TYR92   HIS95   TRP98   ALA133  ILE135 
 HIS136  LEU138  ARG141  THR145  TYR216  VAL219  LEU223  GLN239  VAL252  VAL254 
 CYS255  PHE257  ALA258  TRP261  LEU262  ILE266  MET299  PRO302  ILE303  CYS306 
 CYS307 

> <Gold.Protein.RotatedAtoms>
  111.5745  135.9077   98.0793 H   0  0  0  0  0  0  0  0  0  0  0  0  # atno 10311 bound_to 10303
  112.6614  135.6057  111.4582 H   0  0  0  0  0  0  0  0  0  0  0  0  # atno 10439 bound_to 10432
  122.2947  136.4436  118.4836 H   0  0  0  0  0  0  0  0  0  0  0  0  # atno 10523 bound_to 10518
  120.9861  144.2596  102.6129 H   0  0  0  0  0  0  0  0  0  0  0  0  # atno 11130 bound_to 11118
  125.5489  146.2596   95.6566 H   0  0  0  0  0  0  0  0  0  0  0  0  # atno 11138 bound_to 11129
  144.9798  144.2929  135.6027 H   0  0  0  0  0  0  0  0  0  0  0  0  # atno 11928 bound_to 11921
  134.3606  125.6823  125.1140 H   0  0  0  0  0  0  0  0  0  0  0  0  # atno 12976 bound_to 12967
  122.3782  137.4081  117.1758 LP  0  0  0  0  0  0  0  0  0  0  0  0  # atno 14322 bound_to 10518
  122.7420  135.8212  117.0483 LP  0  0  0  0  0  0  0  0  0  0  0  0  # atno 14323 bound_to 10518
  126.2384  144.8004   95.8651 LP  0  0  0  0  0  0  0  0  0  0  0  0  # atno 14344 bound_to 11129
  126.8649  146.1156   96.6030 LP  0  0  0  0  0  0  0  0  0  0  0  0  # atno 14345 bound_to 11129
  145.9962  145.4173  135.0104 LP  0  0  0  0  0  0  0  0  0  0  0  0  # atno 14348 bound_to 11921
  146.5435  144.2857  136.0529 LP  0  0  0  0  0  0  0  0  0  0  0  0  # atno 14349 bound_to 11921
  134.1298  126.1533  123.5739 LP  0  0  0  0  0  0  0  0  0  0  0  0  # atno 14354 bound_to 12967
  135.5335  126.4967  124.3343 LP  0  0  0  0  0  0  0  0  0  0  0  0  # atno 14355 bound_to 12967

> <Gold.Score>
     Fitness  S(hb_ext) S(vdw_ext)  S(hb_int)    S(int)      intcor
      0.00       0.00      17.85       0.00     -18.49      -0.79

> <Gold.Goldscore.Fitness>
0.0000

> <Gold.Goldscore.Internal.Vdw>
-18.4557

> <Gold.Goldscore.Internal.Torsion>
-0.9339

> <Gold.Goldscore.External.Vdw>
17.8515

> <Gold.Goldscore.Internal.HBond>
0.0000

> <Gold.Goldscore.External.HBond>
0.0000

> <Gold.Goldscore.Internal.Correction>
-0.7922

> <Gold.Goldscore.Internal.Vdw.Weighted>
-18.4557

> <Gold.Goldscore.Internal.Torsion.Weighted>
-0.9339

> <Gold.Goldscore.External.Vdw.Weighted>
24.5458

> <Gold.Goldscore.Internal.HBond.Weighted>
0.0000

> <Gold.Goldscore.External.HBond.Weighted>
0.0000

> <Gold.Goldscore.Internal.Correction.Weighted>
-0.7922

> <Gold.Rescore>
     Score     S(PLP)   S(hbond)     S(cho)   S(metal)  DE(clash)   DE(tors)     intcor
   -159.58     156.12       0.00       0.00       0.00       0.70       1.38       ----

> <Gold.PLP.Fitness>
-159.5832

> <Gold.PLP.PLP>
156.1235

> <Gold.PLP.part.hbond>
-4.5141

> <Gold.PLP.part.metal>
0.0000

> <Gold.PLP.part.buried>
111.9958

> <Gold.PLP.part.nonpolar>
38.0577

> <Gold.PLP.part.repulsive>
10.3130

> <Gold.PLP.ligand.clash>
0.7015

> <Gold.PLP.ligand.torsion>
1.3791

> <Gold.PLP.Chemscore.Hbond>
0.0000

> <Gold.PLP.Chemscore.CHOScore>
0.0000

> <Gold.PLP.Chemscore.Metal>
0.0000

> <Gold.PLP.Chemscore.Internal.Correction>
   9.000000E+99

#       Name:                CT1002167954
#       Creating user name   hitesit
#       Creation time:       Sun Apr 16 22:56:53 2023


#       File generated by GOLD software.
#

@<TRIPOS>MOLECULE
CT1002167954|ligand_prepared|mol2|1|dock5
    29    30     1
SMALL
NO_CHARGES


@<TRIPOS>ATOM
      1 C1         141.2524 130.1632 142.2625 C.3            1 RES1               0.0000
      2 C2         139.7253 129.9997 142.4035 C.ar           1 RES1               0.0000
      3 C3         141.7982 128.7874 141.8919 C.2            1 RES1               0.0000
      4 C4         141.4706 131.2278 141.1930 C.2            1 RES1               0.0000
      5 C5         141.9524 130.6368 143.5576 C.3            1 RES1               0.0000
      6 C6         139.1151 128.7793 142.1299 C.ar           1 RES1               0.0000
      7 C7         138.9154 131.0576 142.8080 C.ar           1 RES1               0.0000
      8 N8         142.2066 128.5953 140.6049 N.am           1 RES1               0.0000
      9 O9         141.8329 127.8731 142.7063 O.2            1 RES1               0.0000
     10 N10        142.0676 130.8466 140.0199 N.am           1 RES1               0.0000
     11 O11        141.1158 132.3897 141.3489 O.2            1 RES1               0.0000
     12 C12        141.4809 131.9970 144.0472 C.3            1 RES1               0.0000
     13 C13        137.7451 128.6212 142.2588 C.ar           1 RES1               0.0000
     14 C14        137.5456 130.8973 142.9361 C.ar           1 RES1               0.0000
     15 C15        142.4176 129.5722 139.6654 C.2            1 RES1               0.0000
     16 C16        136.9596 129.6798 142.6624 C.ar           1 RES1               0.0000
     17 O17        142.9004 129.2999 138.5700 O.2            1 RES1               0.0000
     18 H18        141.7735 129.8960 144.3467 H              1 RES1               0.0000
     19 H19        143.0337 130.6814 143.3786 H              1 RES1               0.0000
     20 H20        139.7167 127.9356 141.8087 H              1 RES1               0.0000
     21 H21        139.3544 132.0248 143.0276 H              1 RES1               0.0000
     22 H22        142.3702 127.6366 140.3142 H              1 RES1               0.0000
     23 H23        142.2699 131.5808 139.3489 H              1 RES1               0.0000
     24 H24        142.0035 132.2815 144.9581 H              1 RES1               0.0000
     25 H25        141.6666 132.7627 143.2968 H              1 RES1               0.0000
     26 H26        140.4138 131.9820 144.2592 H              1 RES1               0.0000
     27 H27        137.2887 127.6613 142.0409 H              1 RES1               0.0000
     28 H28        136.9311 131.7334 143.2534 H              1 RES1               0.0000
     29 H29        135.8865 129.5555 142.7637 H              1 RES1               0.0000
@<TRIPOS>BOND
    1    1    2 1     
    2    1    3 1     
    3    1    4 1     
    4    1    5 1     
    5    2    6 ar    
    6    2    7 ar    
    7    3    8 1     
    8    3    9 2     
    9    4   10 1     
   10    4   11 2     
   11    5   12 1     
   12    5   18 1     
   13    5   19 1     
   14    6   13 ar    
   15    6   20 1     
   16    7   14 ar    
   17    7   21 1     
   18    8   15 1     
   19    8   22 1     
   20   10   15 1     
   21   10   23 1     
   22   12   24 1     
   23   12   25 1     
   24   12   26 1     
   25   13   16 ar    
   26   13   27 1     
   27   14   16 ar    
   28   14   28 1     
   29   15   17 2     
   30   16   29 1     
@<TRIPOS>SUBSTRUCTURE
      1 RES1           1
@<TRIPOS>SET
DONOR_HYDROGENS      STATIC     ATOMS    <user>   **** ""
2 22 23
ATOM$RED        STATIC     ATOMS    COLORGROUP SYSTEM
2 22 23
@<TRIPOS>COMMENT
> <Gold.Version>
2022.3.0

> <Gold.Id.Protein>
unknown|7rmi_cavity_clean|pdb

> <Gold.Protein.RotatedTorsions>
[ 10523 10518 10517 10514 ] final -114.38 input   59.99 | X-H torsion
[ 10439 10432 10433 10434 ] final   50.78 input  118.28 | X-H torsion
[ 10311 10303 10304 10305 ] final  159.60 input  114.60 | X-H torsion
[ 11130 11118 11119 11120 ] final  -49.77 input  109.13 | X-H torsion
[ 11138 11129 11128 11126 ] final   68.44 input   60.00 | X-H torsion
[ 11928 11921 11919 11916 ] final  107.81 input   60.00 | X-H torsion
[ 12976 12967 12966 12964 ] final  142.96 input   60.00 | X-H torsion

> <Gold.Protein.ActiveResidues>
 ASN392  LEU393  ILE32   VAL41   SER46   TYR92   HIS95   TRP98   ALA133  ILE135 
 HIS136  LEU138  ARG141  THR145  TYR216  VAL219  LEU223  GLN239  VAL252  VAL254 
 CYS255  PHE257  ALA258  TRP261  LEU262  ILE266  MET299  PRO302  ILE303  CYS306 
 CYS307 

> <Gold.Protein.RotatedAtoms>
  111.0629  136.3475   97.7823 H   0  0  0  0  0  0  0  0  0  0  0  0  # atno 10311 bound_to 10303
  113.9710  135.6638  111.4699 H   0  0  0  0  0  0  0  0  0  0  0  0  # atno 10439 bound_to 10432
  122.3812  137.3955  117.1648 H   0  0  0  0  0  0  0  0  0  0  0  0  # atno 10523 bound_to 10518
  119.4837  144.2939  101.7330 H   0  0  0  0  0  0  0  0  0  0  0  0  # atno 11130 bound_to 11118
  126.4017  146.5873   96.3583 H   0  0  0  0  0  0  0  0  0  0  0  0  # atno 11138 bound_to 11129
  146.0444  143.9744  136.1535 H   0  0  0  0  0  0  0  0  0  0  0  0  # atno 11928 bound_to 11921
  134.6355  126.4178  123.4597 H   0  0  0  0  0  0  0  0  0  0  0  0  # atno 12976 bound_to 12967
  122.7412  135.8122  117.0609 LP  0  0  0  0  0  0  0  0  0  0  0  0  # atno 14322 bound_to 10518
  122.2919  136.4582  118.4918 LP  0  0  0  0  0  0  0  0  0  0  0  0  # atno 14323 bound_to 10518
  125.4824  145.5844   95.4654 LP  0  0  0  0  0  0  0  0  0  0  0  0  # atno 14344 bound_to 11129
  126.7619  145.0016   96.2959 LP  0  0  0  0  0  0  0  0  0  0  0  0  # atno 14345 bound_to 11129
  144.9573  144.7602  135.2322 LP  0  0  0  0  0  0  0  0  0  0  0  0  # atno 14348 bound_to 11921
  146.5101  145.2635  135.2763 LP  0  0  0  0  0  0  0  0  0  0  0  0  # atno 14349 bound_to 11921
  135.4458  126.2620  124.8620 LP  0  0  0  0  0  0  0  0  0  0  0  0  # atno 14354 bound_to 12967
  133.9405  125.6469  124.7127 LP  0  0  0  0  0  0  0  0  0  0  0  0  # atno 14355 bound_to 12967

> <Gold.Score>
     Fitness  S(hb_ext) S(vdw_ext)  S(hb_int)    S(int)      intcor
      0.00       0.20      13.71       0.00     -56.13      -0.76

> <Gold.Goldscore.Fitness>
0.0000

> <Gold.Goldscore.Internal.Vdw>
-56.4210

> <Gold.Goldscore.Internal.Torsion>
-0.4639

> <Gold.Goldscore.External.Vdw>
13.7120

> <Gold.Goldscore.Internal.HBond>
0.0000

> <Gold.Goldscore.External.HBond>
0.1994

> <Gold.Goldscore.Internal.Correction>
-0.7585

> <Gold.Goldscore.Internal.Vdw.Weighted>
-56.4210

> <Gold.Goldscore.Internal.Torsion.Weighted>
-0.4639

> <Gold.Goldscore.External.Vdw.Weighted>
18.8540

> <Gold.Goldscore.Internal.HBond.Weighted>
0.0000

> <Gold.Goldscore.External.HBond.Weighted>
0.1994

> <Gold.Goldscore.Internal.Correction.Weighted>
-0.7585

> <Gold.Rescore>
     Score     S(PLP)   S(hbond)     S(cho)   S(metal)  DE(clash)   DE(tors)     intcor
     12.63     -16.00       0.04       0.00       0.00       2.03       0.73       ----

> <Gold.PLP.Fitness>
12.6346

> <Gold.PLP.PLP>
-15.9964

> <Gold.PLP.part.hbond>
-1.0000

> <Gold.PLP.part.metal>
0.0000

> <Gold.PLP.part.buried>
-3.6487

> <Gold.PLP.part.nonpolar>
-12.3625

> <Gold.PLP.part.repulsive>
0.9936

> <Gold.PLP.ligand.clash>
2.0253

> <Gold.PLP.ligand.torsion>
0.7287

> <Gold.PLP.Chemscore.Hbond>
0.0403

> <Gold.PLP.Chemscore.CHOScore>
0.0000

> <Gold.PLP.Chemscore.Metal>
0.0000

> <Gold.Chemscore.Hbonds>
donor molecule, donor type, donor heavy atom, donor atom, acceptor molecule, acceptor atom, score
      P1  H 11851 11862       L1    17  0.04

> <Gold.PLP.Chemscore.Internal.Correction>
   9.000000E+99

#       Name:                CT1002167954
#       Creating user name   hitesit
#       Creation time:       Sun Apr 16 22:56:55 2023


#       File generated by GOLD software.
#

@<TRIPOS>MOLECULE
CT1002167954|ligand_prepared|mol2|1|dock6
    29    30     1
SMALL
NO_CHARGES


@<TRIPOS>ATOM
      1 C1         135.0870 130.5670 130.2932 C.3            1 RES1               0.0000
      2 C2         135.8297 129.2979 130.7585 C.ar           1 RES1               0.0000
      3 C3         133.6071 130.2002 130.2347 C.2            1 RES1               0.0000
      4 C4         135.4192 131.6529 131.3107 C.2            1 RES1               0.0000
      5 C5         135.5239 131.0703 128.8977 C.3            1 RES1               0.0000
      6 C6         135.1389 128.1070 130.9617 C.ar           1 RES1               0.0000
      7 C7         137.2034 129.3018 130.9857 C.ar           1 RES1               0.0000
      8 N8         132.7948 130.6932 131.2130 N.am           1 RES1               0.0000
      9 O9         133.1667 129.4575 129.3660 O.2            1 RES1               0.0000
     10 N10        134.3995 132.1400 132.0859 N.am           1 RES1               0.0000
     11 O11        136.5577 132.0792 131.4598 O.2            1 RES1               0.0000
     12 C12        136.6208 132.1225 128.9411 C.3            1 RES1               0.0000
     13 C13        135.7979 126.9607 131.3742 C.ar           1 RES1               0.0000
     14 C14        137.8604 128.1544 131.3984 C.ar           1 RES1               0.0000
     15 C15        133.1083 131.6876 132.1045 C.2            1 RES1               0.0000
     16 C16        137.1589 126.9835 131.5923 C.ar           1 RES1               0.0000
     17 O17        132.2606 132.1394 132.8690 O.2            1 RES1               0.0000
     18 H18        135.8779 130.2152 128.3088 H              1 RES1               0.0000
     19 H19        134.6504 131.4919 128.3850 H              1 RES1               0.0000
     20 H20        134.0671 128.0706 130.7974 H              1 RES1               0.0000
     21 H21        137.7755 130.2119 130.8405 H              1 RES1               0.0000
     22 H22        131.8687 130.2847 131.2889 H              1 RES1               0.0000
     23 H23        134.6238 132.9113 132.7064 H              1 RES1               0.0000
     24 H24        136.8896 132.4411 127.9361 H              1 RES1               0.0000
     25 H25        136.2936 132.9981 129.4979 H              1 RES1               0.0000
     26 H26        137.5138 131.7290 129.4222 H              1 RES1               0.0000
     27 H27        135.2410 126.0421 131.5267 H              1 RES1               0.0000
     28 H28        138.9316 128.1771 131.5695 H              1 RES1               0.0000
     29 H29        137.6749 126.0853 131.9151 H              1 RES1               0.0000
@<TRIPOS>BOND
    1    1    2 1     
    2    1    3 1     
    3    1    4 1     
    4    1    5 1     
    5    2    6 ar    
    6    2    7 ar    
    7    3    8 1     
    8    3    9 2     
    9    4   10 1     
   10    4   11 2     
   11    5   12 1     
   12    5   18 1     
   13    5   19 1     
   14    6   13 ar    
   15    6   20 1     
   16    7   14 ar    
   17    7   21 1     
   18    8   15 1     
   19    8   22 1     
   20   10   15 1     
   21   10   23 1     
   22   12   24 1     
   23   12   25 1     
   24   12   26 1     
   25   13   16 ar    
   26   13   27 1     
   27   14   16 ar    
   28   14   28 1     
   29   15   17 2     
   30   16   29 1     
@<TRIPOS>SUBSTRUCTURE
      1 RES1           1
@<TRIPOS>SET
DONOR_HYDROGENS      STATIC     ATOMS    <user>   **** ""
2 22 23
ATOM$RED        STATIC     ATOMS    COLORGROUP SYSTEM
2 22 23
@<TRIPOS>COMMENT
> <Gold.Version>
2022.3.0

> <Gold.Id.Protein>
unknown|7rmi_cavity_clean|pdb

> <Gold.Protein.RotatedTorsions>
[ 10523 10518 10517 10514 ] final  -59.54 input   59.99 | X-H torsion
[ 10439 10432 10433 10434 ] final  -20.94 input  118.28 | X-H torsion
[ 10311 10303 10304 10305 ] final  -21.80 input  114.60 | X-H torsion
[ 11130 11118 11119 11120 ] final  -18.84 input  109.13 | X-H torsion
[ 11138 11129 11128 11126 ] final  -32.81 input   60.00 | X-H torsion
[ 11928 11921 11919 11916 ] final  158.44 input   60.00 | X-H torsion
[ 12976 12967 12966 12964 ] final   17.81 input   60.00 | X-H torsion

> <Gold.Protein.ActiveResidues>
 ASN392  LEU393  ILE32   VAL41   SER46   TYR92   HIS95   TRP98   ALA133  ILE135 
 HIS136  LEU138  ARG141  THR145  TYR216  VAL219  LEU223  GLN239  VAL252  VAL254 
 CYS255  PHE257  ALA258  TRP261  LEU262  ILE266  MET299  PRO302  ILE303  CYS306 
 CYS307 

> <Gold.Protein.RotatedAtoms>
  110.5374  135.4233   99.1974 H   0  0  0  0  0  0  0  0  0  0  0  0  # atno 10311 bound_to 10303
  114.0440  136.4646  112.1239 H   0  0  0  0  0  0  0  0  0  0  0  0  # atno 10439 bound_to 10432
  122.2083  137.3426  118.0077 H   0  0  0  0  0  0  0  0  0  0  0  0  # atno 10523 bound_to 10518
  119.6659  143.8637  101.7707 H   0  0  0  0  0  0  0  0  0  0  0  0  # atno 11130 bound_to 11118
  125.4593  145.8861   95.5127 H   0  0  0  0  0  0  0  0  0  0  0  0  # atno 11138 bound_to 11129
  146.6571  144.4495  135.9541 H   0  0  0  0  0  0  0  0  0  0  0  0  # atno 11928 bound_to 11921
  135.4023  126.2182  124.9201 H   0  0  0  0  0  0  0  0  0  0  0  0  # atno 12976 bound_to 12967
  122.6696  136.5738  116.6499 LP  0  0  0  0  0  0  0  0  0  0  0  0  # atno 14322 bound_to 10518
  122.5376  135.7498  118.0535 LP  0  0  0  0  0  0  0  0  0  0  0  0  # atno 14323 bound_to 10518
  126.5621  144.8528   96.1165 LP  0  0  0  0  0  0  0  0  0  0  0  0  # atno 14344 bound_to 11129
  126.6315  146.4395   96.4965 LP  0  0  0  0  0  0  0  0  0  0  0  0  # atno 14345 bound_to 11129
  145.0717  144.1484  135.7446 LP  0  0  0  0  0  0  0  0  0  0  0  0  # atno 14348 bound_to 11921
  145.7786  145.3970  134.9648 LP  0  0  0  0  0  0  0  0  0  0  0  0  # atno 14349 bound_to 11921
  133.9014  125.6571  124.6381 LP  0  0  0  0  0  0  0  0  0  0  0  0  # atno 14354 bound_to 12967
  134.7125  126.4530  123.4654 LP  0  0  0  0  0  0  0  0  0  0  0  0  # atno 14355 bound_to 12967

> <Gold.Score>
     Fitness  S(hb_ext) S(vdw_ext)  S(hb_int)    S(int)      intcor
      0.00       0.14       2.41       0.00     -17.55      -0.76

> <Gold.Goldscore.Fitness>
0.0000

> <Gold.Goldscore.Internal.Vdw>
-15.6704

> <Gold.Goldscore.Internal.Torsion>
-2.6384

> <Gold.Goldscore.External.Vdw>
2.4083

> <Gold.Goldscore.Internal.HBond>
0.0000

> <Gold.Goldscore.External.HBond>
0.1416

> <Gold.Goldscore.Internal.Correction>
-0.7585

> <Gold.Goldscore.Hbonds>
donor molecule, donor type, donor heavy atom, donor atom, acceptor molecule, acceptor atom, score
      P1  H  3275  3282       L1     9  0.08

> <Gold.Goldscore.Internal.Vdw.Weighted>
-15.6704

> <Gold.Goldscore.Internal.Torsion.Weighted>
-2.6384

> <Gold.Goldscore.External.Vdw.Weighted>
3.3114

> <Gold.Goldscore.Internal.HBond.Weighted>
0.0000

> <Gold.Goldscore.External.HBond.Weighted>
0.1416

> <Gold.Goldscore.Internal.Correction.Weighted>
-0.7585

> <Gold.Rescore>
     Score     S(PLP)   S(hbond)     S(cho)   S(metal)  DE(clash)   DE(tors)     intcor
    -47.86      34.79       0.10       0.00       0.00      11.91       0.72       ----

> <Gold.PLP.Fitness>
-47.8591

> <Gold.PLP.PLP>
34.7921

> <Gold.PLP.part.hbond>
1.1590

> <Gold.PLP.part.metal>
0.0000

> <Gold.PLP.part.buried>
19.2666

> <Gold.PLP.part.nonpolar>
0.5757

> <Gold.PLP.part.repulsive>
12.0057

> <Gold.PLP.ligand.clash>
11.9086

> <Gold.PLP.ligand.torsion>
0.7232

> <Gold.PLP.Chemscore.Hbond>
0.0960

> <Gold.PLP.Chemscore.CHOScore>
0.0000

> <Gold.PLP.Chemscore.Metal>
0.0000

> <Gold.Chemscore.Hbonds>
donor molecule, donor type, donor heavy atom, donor atom, acceptor molecule, acceptor atom, score
      P1  H  3275  3281       L1    17  0.10

> <Gold.PLP.Chemscore.Internal.Correction>
   9.000000E+99

#       Name:                CT1002167954
#       Creating user name   hitesit
#       Creation time:       Sun Apr 16 22:56:57 2023


#       File generated by GOLD software.
#

@<TRIPOS>MOLECULE
CT1002167954|ligand_prepared|mol2|1|dock7
    29    30     1
SMALL
NO_CHARGES


@<TRIPOS>ATOM
      1 C1         131.9941 127.9385 121.8662 C.3            1 RES1               0.0000
      2 C2         131.6456 127.9344 120.3638 C.ar           1 RES1               0.0000
      3 C3         133.1595 126.9686 122.0384 C.2            1 RES1               0.0000
      4 C4         132.3289 129.3827 122.2225 C.2            1 RES1               0.0000
      5 C5         130.8332 127.4782 122.7782 C.3            1 RES1               0.0000
      6 C6         130.5742 128.6810 119.8829 C.ar           1 RES1               0.0000
      7 C7         132.3865 127.1923 119.4479 C.ar           1 RES1               0.0000
      8 N8         134.3950 127.4994 122.2653 N.am           1 RES1               0.0000
      9 O9         133.0035 125.7580 121.9372 O.2            1 RES1               0.0000
     10 N10        133.6149 129.6697 122.5988 N.am           1 RES1               0.0000
     11 O11        131.4946 130.2777 122.1648 O.2            1 RES1               0.0000
     12 C12        130.7536 128.2314 124.0968 C.3            1 RES1               0.0000
     13 C13        130.2567 128.6880 118.5347 C.ar           1 RES1               0.0000
     14 C14        132.0672 127.2005 118.1001 C.ar           1 RES1               0.0000
     15 C15        134.6705 128.7991 122.6067 C.2            1 RES1               0.0000
     16 C16        131.0031 127.9482 117.6425 C.ar           1 RES1               0.0000
     17 O17        135.8100 129.1448 122.9053 O.2            1 RES1               0.0000
     18 H18        129.8870 127.6096 122.2389 H              1 RES1               0.0000
     19 H19        130.9529 126.4084 122.9895 H              1 RES1               0.0000
     20 H20        129.9738 129.2675 120.5704 H              1 RES1               0.0000
     21 H21        133.2273 126.5958 119.7854 H              1 RES1               0.0000
     22 H22        135.1875 126.8720 122.1723 H              1 RES1               0.0000
     23 H23        133.8026 130.6203 122.9012 H              1 RES1               0.0000
     24 H24        129.9223 127.8695 124.6982 H              1 RES1               0.0000
     25 H25        131.6688 128.1019 124.6708 H              1 RES1               0.0000
     26 H26        130.6092 129.2960 123.9247 H              1 RES1               0.0000
     27 H27        129.4175 129.2771 118.1798 H              1 RES1               0.0000
     28 H28        132.6570 126.6163 117.4015 H              1 RES1               0.0000
     29 H29        130.7545 127.9542 116.5864 H              1 RES1               0.0000
@<TRIPOS>BOND
    1    1    2 1     
    2    1    3 1     
    3    1    4 1     
    4    1    5 1     
    5    2    6 ar    
    6    2    7 ar    
    7    3    8 1     
    8    3    9 2     
    9    4   10 1     
   10    4   11 2     
   11    5   12 1     
   12    5   18 1     
   13    5   19 1     
   14    6   13 ar    
   15    6   20 1     
   16    7   14 ar    
   17    7   21 1     
   18    8   15 1     
   19    8   22 1     
   20   10   15 1     
   21   10   23 1     
   22   12   24 1     
   23   12   25 1     
   24   12   26 1     
   25   13   16 ar    
   26   13   27 1     
   27   14   16 ar    
   28   14   28 1     
   29   15   17 2     
   30   16   29 1     
@<TRIPOS>SUBSTRUCTURE
      1 RES1           1
@<TRIPOS>SET
DONOR_HYDROGENS      STATIC     ATOMS    <user>   **** ""
2 22 23
ATOM$RED        STATIC     ATOMS    COLORGROUP SYSTEM
2 22 23
@<TRIPOS>COMMENT
> <Gold.Version>
2022.3.0

> <Gold.Id.Protein>
unknown|7rmi_cavity_clean|pdb

> <Gold.Protein.RotatedTorsions>
[ 10523 10518 10517 10514 ] final  -58.13 input   59.99 | X-H torsion
[ 10439 10432 10433 10434 ] final   -5.47 input  118.28 | X-H torsion
[ 10311 10303 10304 10305 ] final -179.30 input  114.60 | X-H torsion
[ 11130 11118 11119 11120 ] final  -80.71 input  109.13 | X-H torsion
[ 11138 11129 11128 11126 ] final   67.03 input   60.00 | X-H torsion
[ 11928 11921 11919 11916 ] final   -7.50 input   60.00 | X-H torsion
[ 12976 12967 12966 12964 ] final -142.50 input   60.00 | X-H torsion

> <Gold.Protein.ActiveResidues>
 ASN392  LEU393  ILE32   VAL41   SER46   TYR92   HIS95   TRP98   ALA133  ILE135 
 HIS136  LEU138  ARG141  THR145  TYR216  VAL219  LEU223  GLN239  VAL252  VAL254 
 CYS255  PHE257  ALA258  TRP261  LEU262  ILE266  MET299  PRO302  ILE303  CYS306 
 CYS307 

> <Gold.Protein.RotatedAtoms>
  111.3327  136.1833   97.8543 H   0  0  0  0  0  0  0  0  0  0  0  0  # atno 10311 bound_to 10303
  114.1412  136.2977  111.9845 H   0  0  0  0  0  0  0  0  0  0  0  0  # atno 10439 bound_to 10432
  122.2065  137.3307  118.0273 H   0  0  0  0  0  0  0  0  0  0  0  0  # atno 10523 bound_to 10518
  119.5136  144.7526  101.8248 H   0  0  0  0  0  0  0  0  0  0  0  0  # atno 11130 bound_to 11118
  126.3836  146.5952   96.3465 H   0  0  0  0  0  0  0  0  0  0  0  0  # atno 11138 bound_to 11129
  144.9451  144.6975  135.2754 H   0  0  0  0  0  0  0  0  0  0  0  0  # atno 11928 bound_to 11921
  133.8326  125.8510  124.0243 H   0  0  0  0  0  0  0  0  0  0  0  0  # atno 12976 bound_to 12967
  122.6649  136.5965  116.6496 LP  0  0  0  0  0  0  0  0  0  0  0  0  # atno 14322 bound_to 10518
  122.5441  135.7391  118.0341 LP  0  0  0  0  0  0  0  0  0  0  0  0  # atno 14323 bound_to 10518
  125.4877  145.5619   95.4647 LP  0  0  0  0  0  0  0  0  0  0  0  0  # atno 14344 bound_to 11129
  126.7748  145.0161   96.3085 LP  0  0  0  0  0  0  0  0  0  0  0  0  # atno 14345 bound_to 11129
  146.4566  145.2987  135.2336 LP  0  0  0  0  0  0  0  0  0  0  0  0  # atno 14348 bound_to 11921
  146.1181  143.9968  136.1593 LP  0  0  0  0  0  0  0  0  0  0  0  0  # atno 14349 bound_to 11921
  135.2655  126.5823  123.7810 LP  0  0  0  0  0  0  0  0  0  0  0  0  # atno 14354 bound_to 12967
  134.9296  125.8976  125.2249 LP  0  0  0  0  0  0  0  0  0  0  0  0  # atno 14355 bound_to 12967

> <Gold.Score>
     Fitness  S(hb_ext) S(vdw_ext)  S(hb_int)    S(int)      intcor
      0.00       0.03      -9.26       0.00     -15.88      -0.76

> <Gold.Goldscore.Fitness>
0.0000

> <Gold.Goldscore.Internal.Vdw>
-13.9356

> <Gold.Goldscore.Internal.Torsion>
-2.7016

> <Gold.Goldscore.External.Vdw>
-9.2608

> <Gold.Goldscore.Internal.HBond>
0.0000

> <Gold.Goldscore.External.HBond>
0.0268

> <Gold.Goldscore.Internal.Correction>
-0.7585

> <Gold.Goldscore.Internal.Vdw.Weighted>
-13.9356

> <Gold.Goldscore.Internal.Torsion.Weighted>
-2.7016

> <Gold.Goldscore.External.Vdw.Weighted>
-12.7336

> <Gold.Goldscore.Internal.HBond.Weighted>
0.0000

> <Gold.Goldscore.External.HBond.Weighted>
0.0268

> <Gold.Goldscore.Internal.Correction.Weighted>
-0.7585

> <Gold.Rescore>
     Score     S(PLP)   S(hbond)     S(cho)   S(metal)  DE(clash)   DE(tors)     intcor
    -19.41      14.93       0.00       0.00       0.00       2.96       0.76       ----

> <Gold.PLP.Fitness>
-19.4137

> <Gold.PLP.PLP>
14.9296

> <Gold.PLP.part.hbond>
-4.0000

> <Gold.PLP.part.metal>
0.0000

> <Gold.PLP.part.buried>
32.5574

> <Gold.PLP.part.nonpolar>
-23.3209

> <Gold.PLP.part.repulsive>
9.4684

> <Gold.PLP.ligand.clash>
2.9559

> <Gold.PLP.ligand.torsion>
0.7641

> <Gold.PLP.Chemscore.Hbond>
0.0000

> <Gold.PLP.Chemscore.CHOScore>
0.0000

> <Gold.PLP.Chemscore.Metal>
0.0000

> <Gold.Chemscore.Hbonds>
donor molecule, donor type, donor heavy atom, donor atom, acceptor molecule, acceptor atom, score
      P1  H 12967 12976       L1     9  0.02

> <Gold.PLP.Chemscore.Internal.Correction>
   9.000000E+99

#       Name:                CT1002167954
#       Creating user name   hitesit
#       Creation time:       Sun Apr 16 22:56:58 2023


#       File generated by GOLD software.
#

@<TRIPOS>MOLECULE
CT1002167954|ligand_prepared|mol2|1|dock8
    29    30     1
SMALL
NO_CHARGES


@<TRIPOS>ATOM
      1 C1         141.2488 129.9167 141.5317 C.3            1 RES1               0.0000
      2 C2         139.7451 130.0091 141.8619 C.ar           1 RES1               0.0000
      3 C3         141.6007 128.4321 141.5478 C.2            1 RES1               0.0000
      4 C4         141.4289 130.5840 140.1727 C.2            1 RES1               0.0000
      5 C5         142.1576 130.6480 142.5471 C.3            1 RES1               0.0000
      6 C6         139.0585 131.2099 141.7095 C.ar           1 RES1               0.0000
      7 C7         139.0317 128.9032 142.3166 C.ar           1 RES1               0.0000
      8 N8         141.8141 127.8203 140.3478 N.am           1 RES1               0.0000
      9 O9         141.6512 127.7987 142.5950 O.2            1 RES1               0.0000
     10 N10        141.8245 129.8008 139.1202 N.am           1 RES1               0.0000
     11 O11        141.2157 131.7778 140.0001 O.2            1 RES1               0.0000
     12 C12        141.6851 132.0512 142.8932 C.3            1 RES1               0.0000
     13 C13        137.7070 131.3014 141.9982 C.ar           1 RES1               0.0000
     14 C14        137.6802 128.9969 142.6050 C.ar           1 RES1               0.0000
     15 C15        141.9956 128.4434 139.1393 C.2            1 RES1               0.0000
     16 C16        137.0169 130.1950 142.4457 C.ar           1 RES1               0.0000
     17 O17        142.2997 127.8013 138.1381 O.2            1 RES1               0.0000
     18 H18        142.2065 130.0546 143.4684 H              1 RES1               0.0000
     19 H19        143.1717 130.7089 142.1334 H              1 RES1               0.0000
     20 H20        139.5855 132.0918 141.3607 H              1 RES1               0.0000
     21 H21        139.5330 127.9507 142.4505 H              1 RES1               0.0000
     22 H22        141.8413 126.8056 140.3491 H              1 RES1               0.0000
     23 H23        142.0087 130.2735 138.2410 H              1 RES1               0.0000
     24 H24        142.3578 132.5192 143.6089 H              1 RES1               0.0000
     25 H25        141.6488 132.6764 142.0035 H              1 RES1               0.0000
     26 H26        140.6892 132.0259 143.3306 H              1 RES1               0.0000
     27 H27        137.1900 132.2469 141.8725 H              1 RES1               0.0000
     28 H28        137.1411 128.1238 142.9576 H              1 RES1               0.0000
     29 H29        135.9581 130.2668 142.6715 H              1 RES1               0.0000
@<TRIPOS>BOND
    1    1    2 1     
    2    1    3 1     
    3    1    4 1     
    4    1    5 1     
    5    2    6 ar    
    6    2    7 ar    
    7    3    8 1     
    8    3    9 2     
    9    4   10 1     
   10    4   11 2     
   11    5   12 1     
   12    5   18 1     
   13    5   19 1     
   14    6   13 ar    
   15    6   20 1     
   16    7   14 ar    
   17    7   21 1     
   18    8   15 1     
   19    8   22 1     
   20   10   15 1     
   21   10   23 1     
   22   12   24 1     
   23   12   25 1     
   24   12   26 1     
   25   13   16 ar    
   26   13   27 1     
   27   14   16 ar    
   28   14   28 1     
   29   15   17 2     
   30   16   29 1     
@<TRIPOS>SUBSTRUCTURE
      1 RES1           1
@<TRIPOS>SET
DONOR_HYDROGENS      STATIC     ATOMS    <user>   **** ""
2 22 23
ATOM$RED        STATIC     ATOMS    COLORGROUP SYSTEM
2 22 23
@<TRIPOS>COMMENT
> <Gold.Version>
2022.3.0

> <Gold.Id.Protein>
unknown|7rmi_cavity_clean|pdb

> <Gold.Protein.RotatedTorsions>
[ 10523 10518 10517 10514 ] final  -31.41 input   59.99 | X-H torsion
[ 10439 10432 10433 10434 ] final  119.69 input  118.28 | X-H torsion
[ 10311 10303 10304 10305 ] final   -0.71 input  114.60 | X-H torsion
[ 11130 11118 11119 11120 ] final  -55.40 input  109.13 | X-H torsion
[ 11138 11129 11128 11126 ] final   60.00 input   60.00 | X-H torsion
[ 11928 11921 11919 11916 ] final -149.53 input   60.00 | X-H torsion
[ 12976 12967 12966 12964 ] final   64.21 input   60.00 | X-H torsion

> <Gold.Protein.ActiveResidues>
 ASN392  LEU393  ILE32   VAL41   SER46   TYR92   HIS95   TRP98   ALA133  ILE135 
 HIS136  LEU138  ARG141  THR145  TYR216  VAL219  LEU223  GLN239  VAL252  VAL254 
 CYS255  PHE257  ALA258  TRP261  LEU262  ILE266  MET299  PRO302  ILE303  CYS306 
 CYS307 

> <Gold.Protein.RotatedAtoms>
  110.2639  135.5841   99.1315 H   0  0  0  0  0  0  0  0  0  0  0  0  # atno 10311 bound_to 10303
  113.0074  135.4419  111.3146 H   0  0  0  0  0  0  0  0  0  0  0  0  # atno 10439 bound_to 10432
  122.2035  137.0272  118.3354 H   0  0  0  0  0  0  0  0  0  0  0  0  # atno 10523 bound_to 10518
  119.4728  144.3792  101.7404 H   0  0  0  0  0  0  0  0  0  0  0  0  # atno 11130 bound_to 11118
  126.2920  146.6270   96.2850 H   0  0  0  0  0  0  0  0  0  0  0  0  # atno 11138 bound_to 11129
  146.6615  145.0962  135.4479 H   0  0  0  0  0  0  0  0  0  0  0  0  # atno 11928 bound_to 11921
  135.5131  126.5144  124.2539 H   0  0  0  0  0  0  0  0  0  0  0  0  # atno 12976 bound_to 12967
  122.5567  137.0071  116.7472 LP  0  0  0  0  0  0  0  0  0  0  0  0  # atno 14322 bound_to 10518
  122.6554  135.6343  117.6261 LP  0  0  0  0  0  0  0  0  0  0  0  0  # atno 14323 bound_to 10518
  125.5207  145.4510   95.4662 LP  0  0  0  0  0  0  0  0  0  0  0  0  # atno 14344 bound_to 11129
  126.8341  145.0949   96.3688 LP  0  0  0  0  0  0  0  0  0  0  0  0  # atno 14345 bound_to 11129
  145.7687  143.9156  136.1242 LP  0  0  0  0  0  0  0  0  0  0  0  0  # atno 14348 bound_to 11921
  145.0773  144.9783  135.0950 LP  0  0  0  0  0  0  0  0  0  0  0  0  # atno 14349 bound_to 11921
  134.4314  125.7009  125.1569 LP  0  0  0  0  0  0  0  0  0  0  0  0  # atno 14354 bound_to 12967
  134.0710  126.1108  123.6178 LP  0  0  0  0  0  0  0  0  0  0  0  0  # atno 14355 bound_to 12967

> <Gold.Score>
     Fitness  S(hb_ext) S(vdw_ext)  S(hb_int)    S(int)      intcor
      0.00       0.75      16.33       0.00     -12.83      -0.76

> <Gold.Goldscore.Fitness>
0.0000

> <Gold.Goldscore.Internal.Vdw>
-12.8830

> <Gold.Goldscore.Internal.Torsion>
-0.7057

> <Gold.Goldscore.External.Vdw>
16.3329

> <Gold.Goldscore.Internal.HBond>
0.0000

> <Gold.Goldscore.External.HBond>
0.7530

> <Gold.Goldscore.Internal.Correction>
-0.7585

> <Gold.Goldscore.Hbonds>
donor molecule, donor type, donor heavy atom, donor atom, acceptor molecule, acceptor atom, score
      P1  H 11851 11862       L1    11  0.07

> <Gold.Goldscore.Internal.Vdw.Weighted>
-12.8830

> <Gold.Goldscore.Internal.Torsion.Weighted>
-0.7057

> <Gold.Goldscore.External.Vdw.Weighted>
22.4578

> <Gold.Goldscore.Internal.HBond.Weighted>
0.0000

> <Gold.Goldscore.External.HBond.Weighted>
0.7530

> <Gold.Goldscore.Internal.Correction.Weighted>
-0.7585

> <Gold.Rescore>
     Score     S(PLP)   S(hbond)     S(cho)   S(metal)  DE(clash)   DE(tors)     intcor
     14.55     -16.50       0.00       0.00       0.00       0.99       0.48       ----

> <Gold.PLP.Fitness>
14.5516

> <Gold.PLP.PLP>
-16.5048

> <Gold.PLP.part.hbond>
-0.4716

> <Gold.PLP.part.metal>
0.0000

> <Gold.PLP.part.buried>
-2.9261

> <Gold.PLP.part.nonpolar>
-13.2058

> <Gold.PLP.part.repulsive>
0.4817

> <Gold.PLP.ligand.clash>
0.9884

> <Gold.PLP.ligand.torsion>
0.4824

> <Gold.PLP.Chemscore.Hbond>
0.0000

> <Gold.PLP.Chemscore.CHOScore>
0.0000

> <Gold.PLP.Chemscore.Metal>
0.0000

> <Gold.PLP.Chemscore.Internal.Correction>
   9.000000E+99

#       Name:                CT1002167954
#       Creating user name   hitesit
#       Creation time:       Sun Apr 16 22:57:00 2023


#       File generated by GOLD software.
#

@<TRIPOS>MOLECULE
CT1002167954|ligand_prepared|mol2|1|dock9
    29    30     1
SMALL
NO_CHARGES


@<TRIPOS>ATOM
      1 C1         142.6959 129.0501 142.5528 C.3            1 RES1               0.0000
      2 C2         142.6539 130.3754 143.3406 C.ar           1 RES1               0.0000
      3 C3         141.3474 128.9269 141.8495 C.2            1 RES1               0.0000
      4 C4         143.8850 129.1551 141.6044 C.2            1 RES1               0.0000
      5 C5         142.9023 127.8014 143.4414 C.3            1 RES1               0.0000
      6 C6         143.6740 130.7049 144.2280 C.ar           1 RES1               0.0000
      7 C7         141.6048 131.2782 143.1888 C.ar           1 RES1               0.0000
      8 N8         141.3150 129.1423 140.5032 N.am           1 RES1               0.0000
      9 O9         140.3215 128.6834 142.4727 O.2            1 RES1               0.0000
     10 N10        143.6319 129.1817 140.2579 N.am           1 RES1               0.0000
     11 O11        145.0377 129.2318 142.0114 O.2            1 RES1               0.0000
     12 C12        141.8924 127.6793 144.5716 C.3            1 RES1               0.0000
     13 C13        143.6479 131.8951 144.9359 C.ar           1 RES1               0.0000
     14 C14        141.5806 132.4678 143.8978 C.ar           1 RES1               0.0000
     15 C15        142.3989 129.2110 139.6653 C.2            1 RES1               0.0000
     16 C16        142.6016 132.7775 144.7710 C.ar           1 RES1               0.0000
     17 O17        142.2518 129.2900 138.4490 O.2            1 RES1               0.0000
     18 H18        142.8377 126.9054 142.8118 H              1 RES1               0.0000
     19 H19        143.9108 127.8369 143.8715 H              1 RES1               0.0000
     20 H20        144.5044 130.0218 144.3727 H              1 RES1               0.0000
     21 H21        140.7902 131.0551 142.5082 H              1 RES1               0.0000
     22 H22        140.4002 129.2635 140.0803 H              1 RES1               0.0000
     23 H23        144.4373 129.1793 139.6401 H              1 RES1               0.0000
     24 H24        142.0823 126.7866 145.1639 H              1 RES1               0.0000
     25 H25        141.9465 128.5421 145.2322 H              1 RES1               0.0000
     26 H26        140.8797 127.6162 144.1787 H              1 RES1               0.0000
     27 H27        144.4532 132.1335 145.6228 H              1 RES1               0.0000
     28 H28        140.7548 133.1590 143.7654 H              1 RES1               0.0000
     29 H29        142.5816 133.7100 145.3253 H              1 RES1               0.0000
@<TRIPOS>BOND
    1    1    2 1     
    2    1    3 1     
    3    1    4 1     
    4    1    5 1     
    5    2    6 ar    
    6    2    7 ar    
    7    3    8 1     
    8    3    9 2     
    9    4   10 1     
   10    4   11 2     
   11    5   12 1     
   12    5   18 1     
   13    5   19 1     
   14    6   13 ar    
   15    6   20 1     
   16    7   14 ar    
   17    7   21 1     
   18    8   15 1     
   19    8   22 1     
   20   10   15 1     
   21   10   23 1     
   22   12   24 1     
   23   12   25 1     
   24   12   26 1     
   25   13   16 ar    
   26   13   27 1     
   27   14   16 ar    
   28   14   28 1     
   29   15   17 2     
   30   16   29 1     
@<TRIPOS>SUBSTRUCTURE
      1 RES1           1
@<TRIPOS>SET
DONOR_HYDROGENS      STATIC     ATOMS    <user>   **** ""
2 22 23
ATOM$RED        STATIC     ATOMS    COLORGROUP SYSTEM
2 22 23
@<TRIPOS>COMMENT
> <Gold.Version>
2022.3.0

> <Gold.Id.Protein>
unknown|7rmi_cavity_clean|pdb

> <Gold.Protein.RotatedTorsions>
[ 10523 10518 10517 10514 ] final -172.04 input   59.99 | X-H torsion
[ 10439 10432 10433 10434 ] final  -33.59 input  118.28 | X-H torsion
[ 10311 10303 10304 10305 ] final  116.01 input  114.60 | X-H torsion
[ 11130 11118 11119 11120 ] final  -96.18 input  109.13 | X-H torsion
[ 11138 11129 11128 11126 ] final   -4.69 input   60.00 | X-H torsion
[ 11928 11921 11919 11916 ] final  171.09 input   60.00 | X-H torsion
[ 12976 12967 12966 12964 ] final -174.85 input   60.00 | X-H torsion

> <Gold.Protein.ActiveResidues>
 ASN392  LEU393  ILE32   VAL41   SER46   TYR92   HIS95   TRP98   ALA133  ILE135 
 HIS136  LEU138  ARG141  THR145  TYR216  VAL219  LEU223  GLN239  VAL252  VAL254 
 CYS255  PHE257  ALA258  TRP261  LEU262  ILE266  MET299  PRO302  ILE303  CYS306 
 CYS307 

> <Gold.Protein.RotatedAtoms>
  110.4357  136.4773   97.9301 H   0  0  0  0  0  0  0  0  0  0  0  0  # atno 10311 bound_to 10303
  113.9236  136.5817  112.2230 H   0  0  0  0  0  0  0  0  0  0  0  0  # atno 10439 bound_to 10432
  122.6399  136.6928  116.6609 H   0  0  0  0  0  0  0  0  0  0  0  0  # atno 10523 bound_to 10518
  119.6077  144.9511  101.9124 H   0  0  0  0  0  0  0  0  0  0  0  0  # atno 11130 bound_to 11118
  125.5673  146.2960   95.6778 H   0  0  0  0  0  0  0  0  0  0  0  0  # atno 11138 bound_to 11129
  146.7260  144.6115  135.8464 H   0  0  0  0  0  0  0  0  0  0  0  0  # atno 11928 bound_to 11921
  134.0663  126.1009  123.6308 H   0  0  0  0  0  0  0  0  0  0  0  0  # atno 12976 bound_to 12967
  122.5718  135.6984  117.9469 LP  0  0  0  0  0  0  0  0  0  0  0  0  # atno 14322 bound_to 10518
  122.2006  137.2799  118.1134 LP  0  0  0  0  0  0  0  0  0  0  0  0  # atno 14323 bound_to 10518
  126.2010  144.8057   95.8384 LP  0  0  0  0  0  0  0  0  0  0  0  0  # atno 14344 bound_to 11129
  126.8837  146.0737   96.6083 LP  0  0  0  0  0  0  0  0  0  0  0  0  # atno 14345 bound_to 11129
  145.2021  144.0410  135.8657 LP  0  0  0  0  0  0  0  0  0  0  0  0  # atno 14348 bound_to 11921
  145.5788  145.3411  134.9522 LP  0  0  0  0  0  0  0  0  0  0  0  0  # atno 14349 bound_to 11921
  135.5147  126.5234  124.2395 LP  0  0  0  0  0  0  0  0  0  0  0  0  # atno 14354 bound_to 12967
  134.4451  125.7049  125.1628 LP  0  0  0  0  0  0  0  0  0  0  0  0  # atno 14355 bound_to 12967

> <Gold.Score>
     Fitness  S(hb_ext) S(vdw_ext)  S(hb_int)    S(int)      intcor
      0.00       0.38       1.83       0.00      -5.77      -0.76

> <Gold.Goldscore.Fitness>
0.0000

> <Gold.Goldscore.Internal.Vdw>
-5.9789

> <Gold.Goldscore.Internal.Torsion>
-0.5546

> <Gold.Goldscore.External.Vdw>
1.8296

> <Gold.Goldscore.Internal.HBond>
0.0000

> <Gold.Goldscore.External.HBond>
0.3771

> <Gold.Goldscore.Internal.Correction>
-0.7585

> <Gold.Goldscore.Hbonds>
donor molecule, donor type, donor heavy atom, donor atom, acceptor molecule, acceptor atom, score
      P1  H 11851 11862       L1    11  0.08

> <Gold.Goldscore.Internal.Vdw.Weighted>
-5.9789

> <Gold.Goldscore.Internal.Torsion.Weighted>
-0.5546

> <Gold.Goldscore.External.Vdw.Weighted>
2.5157

> <Gold.Goldscore.Internal.HBond.Weighted>
0.0000

> <Gold.Goldscore.External.HBond.Weighted>
0.3771

> <Gold.Goldscore.Internal.Correction.Weighted>
-0.7585

> <Gold.Rescore>
     Score     S(PLP)   S(hbond)     S(cho)   S(metal)  DE(clash)   DE(tors)     intcor
     17.73     -19.25       0.00       0.00       0.00       1.15       0.19       ----

> <Gold.PLP.Fitness>
17.7256

> <Gold.PLP.PLP>
-19.2541

> <Gold.PLP.part.hbond>
-1.0710

> <Gold.PLP.part.metal>
0.0000

> <Gold.PLP.part.buried>
-4.0929

> <Gold.PLP.part.nonpolar>
-14.9368

> <Gold.PLP.part.repulsive>
0.5388

> <Gold.PLP.ligand.clash>
1.1481

> <Gold.PLP.ligand.torsion>
0.1902

> <Gold.PLP.Chemscore.Hbond>
0.0000

> <Gold.PLP.Chemscore.CHOScore>
0.0000

> <Gold.PLP.Chemscore.Metal>
0.0000

> <Gold.PLP.Chemscore.Internal.Correction>
   9.000000E+99

