#       Name:                CT1002167954
#       Creating user name   hitesit
#       Creation time:       Sun Apr 16 22:56:47 2023


#       File generated by GOLD software.
#

@<TRIPOS>MOLECULE
CT1002167954|ligand_prepared|mol2|1|dock1
    29    30     1
SMALL
NO_CHARGES


@<TRIPOS>ATOM
      1 C1         131.4636 132.2133 124.9485 C.3            1 RES1               0.0000
      2 C2         130.1801 133.0496 124.7689 C.ar           1 RES1               0.0000
      3 C3         132.0142 131.9672 123.5469 C.2            1 RES1               0.0000
      4 C4         132.3855 133.0337 125.8439 C.2            1 RES1               0.0000
      5 C5         131.2278 130.8457 125.6308 C.3            1 RES1               0.0000
      6 C6         129.2777 132.7530 123.7518 C.ar           1 RES1               0.0000
      7 C7         129.8842 134.1170 125.6125 C.ar           1 RES1               0.0000
      8 N8         133.1244 132.6654 123.1726 N.am           1 RES1               0.0000
      9 O9         131.4598 131.2017 122.7678 O.2            1 RES1               0.0000
     10 N10        133.5557 133.5004 125.3048 N.am           1 RES1               0.0000
     11 O11        132.1012 133.2943 127.0065 O.2            1 RES1               0.0000
     12 C12        132.4898 130.2213 126.2050 C.3            1 RES1               0.0000
     13 C13        128.1198 133.4947 123.5859 C.ar           1 RES1               0.0000
     14 C14        128.7258 134.8575 125.4446 C.ar           1 RES1               0.0000
     15 C15        133.9524 133.3794 124.0009 C.2            1 RES1               0.0000
     16 C16        127.8429 134.5470 124.4323 C.ar           1 RES1               0.0000
     17 O17        134.9937 133.8736 123.5783 O.2            1 RES1               0.0000
     18 H18        130.4986 130.9758 126.4398 H              1 RES1               0.0000
     19 H19        130.7947 130.1549 124.8968 H              1 RES1               0.0000
     20 H20        129.4800 131.9300 123.0745 H              1 RES1               0.0000
     21 H21        130.5648 134.3801 126.4151 H              1 RES1               0.0000
     22 H22        133.3607 132.6557 122.1855 H              1 RES1               0.0000
     23 H23        134.1898 133.9826 125.9339 H              1 RES1               0.0000
     24 H24        132.2684 129.2639 126.6719 H              1 RES1               0.0000
     25 H25        133.2279 130.0546 125.4232 H              1 RES1               0.0000
     26 H26        132.9335 130.8705 126.9571 H              1 RES1               0.0000
     27 H27        127.4289 133.2471 122.7868 H              1 RES1               0.0000
     28 H28        128.5121 135.6853 126.1127 H              1 RES1               0.0000
     29 H29        126.9355 135.1277 124.3024 H              1 RES1               0.0000
@<TRIPOS>BOND
    1    1    2 1     
    2    1    3 1     
    3    1    4 1     
    4    1    5 1     
    5    2    6 ar    
    6    2    7 ar    
    7    3    8 1     
    8    3    9 2     
    9    4   10 1     
   10    4   11 2     
   11    5   12 1     
   12    5   18 1     
   13    5   19 1     
   14    6   13 ar    
   15    6   20 1     
   16    7   14 ar    
   17    7   21 1     
   18    8   15 1     
   19    8   22 1     
   20   10   15 1     
   21   10   23 1     
   22   12   24 1     
   23   12   25 1     
   24   12   26 1     
   25   13   16 ar    
   26   13   27 1     
   27   14   16 ar    
   28   14   28 1     
   29   15   17 2     
   30   16   29 1     
@<TRIPOS>SUBSTRUCTURE
      1 RES1           1
@<TRIPOS>SET
DONOR_HYDROGENS      STATIC     ATOMS    <user>   **** ""
2 22 23
ATOM$RED        STATIC     ATOMS    COLORGROUP SYSTEM
2 22 23
@<TRIPOS>COMMENT
> <Gold.Version>
2022.3.0

> <Gold.Id.Protein>
unknown|7rmi_cavity_clean|pdb

> <Gold.Protein.RotatedTorsions>
[ 10523 10518 10517 10514 ] final    6.55 input   59.99 | X-H torsion
[ 10439 10432 10433 10434 ] final  146.41 input  118.28 | X-H torsion
[ 10311 10303 10304 10305 ] final -151.18 input  114.60 | X-H torsion
[ 11130 11118 11119 11120 ] final  114.76 input  109.13 | X-H torsion
[ 11138 11129 11128 11126 ] final   -7.50 input   60.00 | X-H torsion
[ 11928 11921 11919 11916 ] final   24.84 input   60.00 | X-H torsion
[ 12976 12967 12966 12964 ] final  -60.94 input   60.00 | X-H torsion

> <Gold.Protein.ActiveResidues>
 ASN392  LEU393  ILE32   VAL41   SER46   TYR92   HIS95   TRP98   ALA133  ILE135 
 HIS136  LEU138  ARG141  THR145  TYR216  VAL219  LEU223  GLN239  VAL252  VAL254 
 CYS255  PHE257  ALA258  TRP261  LEU262  ILE266  MET299  PRO302  ILE303  CYS306 
 CYS307 

> <Gold.Protein.RotatedAtoms>
  111.5745  135.9077   98.0793 H   0  0  0  0  0  0  0  0  0  0  0  0  # atno 10311 bound_to 10303
  112.6614  135.6057  111.4582 H   0  0  0  0  0  0  0  0  0  0  0  0  # atno 10439 bound_to 10432
  122.2947  136.4436  118.4836 H   0  0  0  0  0  0  0  0  0  0  0  0  # atno 10523 bound_to 10518
  120.9861  144.2596  102.6129 H   0  0  0  0  0  0  0  0  0  0  0  0  # atno 11130 bound_to 11118
  125.5489  146.2596   95.6566 H   0  0  0  0  0  0  0  0  0  0  0  0  # atno 11138 bound_to 11129
  144.9798  144.2929  135.6027 H   0  0  0  0  0  0  0  0  0  0  0  0  # atno 11928 bound_to 11921
  134.3606  125.6823  125.1140 H   0  0  0  0  0  0  0  0  0  0  0  0  # atno 12976 bound_to 12967
  122.3782  137.4081  117.1758 LP  0  0  0  0  0  0  0  0  0  0  0  0  # atno 14322 bound_to 10518
  122.7420  135.8212  117.0483 LP  0  0  0  0  0  0  0  0  0  0  0  0  # atno 14323 bound_to 10518
  126.2384  144.8004   95.8651 LP  0  0  0  0  0  0  0  0  0  0  0  0  # atno 14344 bound_to 11129
  126.8649  146.1156   96.6030 LP  0  0  0  0  0  0  0  0  0  0  0  0  # atno 14345 bound_to 11129
  145.9962  145.4173  135.0104 LP  0  0  0  0  0  0  0  0  0  0  0  0  # atno 14348 bound_to 11921
  146.5435  144.2857  136.0529 LP  0  0  0  0  0  0  0  0  0  0  0  0  # atno 14349 bound_to 11921
  134.1298  126.1533  123.5739 LP  0  0  0  0  0  0  0  0  0  0  0  0  # atno 14354 bound_to 12967
  135.5335  126.4967  124.3343 LP  0  0  0  0  0  0  0  0  0  0  0  0  # atno 14355 bound_to 12967

> <Gold.Score>
     Fitness  S(hb_ext) S(vdw_ext)  S(hb_int)    S(int)      intcor
      0.00       0.00      17.85       0.00     -18.49      -0.79

> <Gold.Goldscore.Fitness>
0.0000

> <Gold.Goldscore.Internal.Vdw>
-18.4557

> <Gold.Goldscore.Internal.Torsion>
-0.9339

> <Gold.Goldscore.External.Vdw>
17.8515

> <Gold.Goldscore.Internal.HBond>
0.0000

> <Gold.Goldscore.External.HBond>
0.0000

> <Gold.Goldscore.Internal.Correction>
-0.7922

> <Gold.Goldscore.Internal.Vdw.Weighted>
-18.4557

> <Gold.Goldscore.Internal.Torsion.Weighted>
-0.9339

> <Gold.Goldscore.External.Vdw.Weighted>
24.5458

> <Gold.Goldscore.Internal.HBond.Weighted>
0.0000

> <Gold.Goldscore.External.HBond.Weighted>
0.0000

> <Gold.Goldscore.Internal.Correction.Weighted>
-0.7922

> <Gold.Rescore>
     Score     S(PLP)   S(hbond)     S(cho)   S(metal)  DE(clash)   DE(tors)     intcor
   -159.58     156.12       0.00       0.00       0.00       0.70       1.38       ----

> <Gold.PLP.Fitness>
-159.5832

> <Gold.PLP.PLP>
156.1235

> <Gold.PLP.part.hbond>
-4.5141

> <Gold.PLP.part.metal>
0.0000

> <Gold.PLP.part.buried>
111.9958

> <Gold.PLP.part.nonpolar>
38.0577

> <Gold.PLP.part.repulsive>
10.3130

> <Gold.PLP.ligand.clash>
0.7015

> <Gold.PLP.ligand.torsion>
1.3791

> <Gold.PLP.Chemscore.Hbond>
0.0000

> <Gold.PLP.Chemscore.CHOScore>
0.0000

> <Gold.PLP.Chemscore.Metal>
0.0000

> <Gold.PLP.Chemscore.Internal.Correction>
   9.000000E+99

