#       Name:                CT1002167954
#       Creating user name   hitesit
#       Creation time:       Sun Apr 16 22:56:52 2023


#       File generated by GOLD software.
#

@<TRIPOS>MOLECULE
CT1002167954|ligand_prepared|mol2|1|dock4
    29    30     1
SMALL
NO_CHARGES


@<TRIPOS>ATOM
      1 C1         141.6309 129.7144 139.8333 C.3            1 RES1               0.0000
      2 C2         140.7465 129.0852 140.9291 C.ar           1 RES1               0.0000
      3 C3         142.8605 128.8195 139.7088 C.2            1 RES1               0.0000
      4 C4         140.7733 129.7722 138.5740 C.2            1 RES1               0.0000
      5 C5         142.1003 131.1517 140.1580 C.3            1 RES1               0.0000
      6 C6         139.4337 129.5098 141.1108 C.ar           1 RES1               0.0000
      7 C7         141.2278 128.0793 141.7628 C.ar           1 RES1               0.0000
      8 N8         142.9478 128.0149 138.6111 N.am           1 RES1               0.0000
      9 O9         143.7211 128.7912 140.5799 O.2            1 RES1               0.0000
     10 N10        141.1477 128.9992 137.5062 N.am           1 RES1               0.0000
     11 O11        139.7674 130.4674 138.5025 O.2            1 RES1               0.0000
     12 C12        142.8550 131.2679 141.4729 C.3            1 RES1               0.0000
     13 C13        138.6301 128.9472 142.0885 C.ar           1 RES1               0.0000
     14 C14        140.4225 127.5181 142.7401 C.ar           1 RES1               0.0000
     15 C15        142.1786 128.0999 137.4785 C.2            1 RES1               0.0000
     16 C16        139.1237 127.9507 142.9034 C.ar           1 RES1               0.0000
     17 O17        142.4197 127.4008 136.4985 O.2            1 RES1               0.0000
     18 H18        142.7490 131.5031 139.3462 H              1 RES1               0.0000
     19 H19        141.2233 131.8097 140.1950 H              1 RES1               0.0000
     20 H20        139.0287 130.2946 140.4806 H              1 RES1               0.0000
     21 H21        142.2467 127.7239 141.6532 H              1 RES1               0.0000
     22 H22        143.6498 127.2821 138.6346 H              1 RES1               0.0000
     23 H23        140.6080 129.1040 136.6530 H              1 RES1               0.0000
     24 H24        143.1614 132.2963 141.6522 H              1 RES1               0.0000
     25 H25        142.2307 130.9502 142.3054 H              1 RES1               0.0000
     26 H26        143.7474 130.6455 141.4617 H              1 RES1               0.0000
     27 H27        137.6091 129.2921 142.2139 H              1 RES1               0.0000
     28 H28        140.8153 126.7345 143.3796 H              1 RES1               0.0000
     29 H29        138.4938 127.5098 143.6690 H              1 RES1               0.0000
@<TRIPOS>BOND
    1    1    2 1     
    2    1    3 1     
    3    1    4 1     
    4    1    5 1     
    5    2    6 ar    
    6    2    7 ar    
    7    3    8 1     
    8    3    9 2     
    9    4   10 1     
   10    4   11 2     
   11    5   12 1     
   12    5   18 1     
   13    5   19 1     
   14    6   13 ar    
   15    6   20 1     
   16    7   14 ar    
   17    7   21 1     
   18    8   15 1     
   19    8   22 1     
   20   10   15 1     
   21   10   23 1     
   22   12   24 1     
   23   12   25 1     
   24   12   26 1     
   25   13   16 ar    
   26   13   27 1     
   27   14   16 ar    
   28   14   28 1     
   29   15   17 2     
   30   16   29 1     
@<TRIPOS>SUBSTRUCTURE
      1 RES1           1
@<TRIPOS>SET
DONOR_HYDROGENS      STATIC     ATOMS    <user>   **** ""
2 22 23
ATOM$RED        STATIC     ATOMS    COLORGROUP SYSTEM
2 22 23
@<TRIPOS>COMMENT
> <Gold.Version>
2022.3.0

> <Gold.Id.Protein>
unknown|7rmi_cavity_clean|pdb

> <Gold.Protein.RotatedTorsions>
[ 10523 10518 10517 10514 ] final   22.39 input   59.99 | X-H torsion
[ 10439 10432 10433 10434 ] final  105.93 input  118.28 | X-H torsion
[ 10311 10303 10304 10305 ] final -126.37 input  114.60 | X-H torsion
[ 11130 11118 11119 11120 ] final   -4.42 input  109.13 | X-H torsion
[ 11138 11129 11128 11126 ] final -133.67 input   60.00 | X-H torsion
[ 11928 11921 11919 11916 ] final  -33.61 input   60.00 | X-H torsion
[ 12976 12967 12966 12964 ] final -137.12 input   60.00 | X-H torsion

> <Gold.Protein.ActiveResidues>
 ASN392  LEU393  ILE32   VAL41   SER46   TYR92   HIS95   TRP98   ALA133  ILE135 
 HIS136  LEU138  ARG141  THR145  TYR216  VAL219  LEU223  GLN239  VAL252  VAL254 
 CYS255  PHE257  ALA258  TRP261  LEU262  ILE266  MET299  PRO302  ILE303  CYS306 
 CYS307 

> <Gold.Protein.RotatedAtoms>
  111.6349  135.6590   98.3603 H   0  0  0  0  0  0  0  0  0  0  0  0  # atno 10311 bound_to 10303
  113.2147  135.4108  111.2835 H   0  0  0  0  0  0  0  0  0  0  0  0  # atno 10439 bound_to 10432
  122.3582  136.1998  118.4290 H   0  0  0  0  0  0  0  0  0  0  0  0  # atno 10523 bound_to 10518
  119.8106  143.7086  101.8309 H   0  0  0  0  0  0  0  0  0  0  0  0  # atno 11130 bound_to 11118
  126.3184  144.8030   95.9271 H   0  0  0  0  0  0  0  0  0  0  0  0  # atno 11138 bound_to 11129
  145.1216  145.0224  135.0704 H   0  0  0  0  0  0  0  0  0  0  0  0  # atno 11928 bound_to 11921
  133.8183  125.8153  124.1033 H   0  0  0  0  0  0  0  0  0  0  0  0  # atno 12976 bound_to 12967
  122.3114  137.4738  117.4180 LP  0  0  0  0  0  0  0  0  0  0  0  0  # atno 14322 bound_to 10518
  122.7448  136.0012  116.8610 LP  0  0  0  0  0  0  0  0  0  0  0  0  # atno 14323 bound_to 10518
  126.8181  146.2042   96.5865 LP  0  0  0  0  0  0  0  0  0  0  0  0  # atno 14344 bound_to 11129
  125.5101  146.1791   95.6091 LP  0  0  0  0  0  0  0  0  0  0  0  0  # atno 14345 bound_to 11129
  146.6932  145.0557  135.4912 LP  0  0  0  0  0  0  0  0  0  0  0  0  # atno 14348 bound_to 11921
  145.7038  143.9125  136.1083 LP  0  0  0  0  0  0  0  0  0  0  0  0  # atno 14349 bound_to 11921
  135.2031  126.5777  123.7183 LP  0  0  0  0  0  0  0  0  0  0  0  0  # atno 14354 bound_to 12967
  135.0065  125.9382  125.2079 LP  0  0  0  0  0  0  0  0  0  0  0  0  # atno 14355 bound_to 12967

> <Gold.Score>
     Fitness  S(hb_ext) S(vdw_ext)  S(hb_int)    S(int)      intcor
      7.57       0.00      16.12       0.00     -14.59      -0.76

> <Gold.Goldscore.Fitness>
7.5744

> <Gold.Goldscore.Internal.Vdw>
-13.6588

> <Gold.Goldscore.Internal.Torsion>
-1.6852

> <Gold.Goldscore.External.Vdw>
16.1162

> <Gold.Goldscore.Internal.HBond>
0.0000

> <Gold.Goldscore.External.HBond>
0.0000

> <Gold.Goldscore.Internal.Correction>
-0.7585

> <Gold.Goldscore.Internal.Vdw.Weighted>
-13.6588

> <Gold.Goldscore.Internal.Torsion.Weighted>
-1.6852

> <Gold.Goldscore.External.Vdw.Weighted>
22.1598

> <Gold.Goldscore.Internal.HBond.Weighted>
0.0000

> <Gold.Goldscore.External.HBond.Weighted>
0.0000

> <Gold.Goldscore.Internal.Correction.Weighted>
-0.7585

> <Gold.Rescore>
     Score     S(PLP)   S(hbond)     S(cho)   S(metal)  DE(clash)   DE(tors)     intcor
     30.34     -32.13       0.00       0.00       0.00       0.86       0.46       ----

> <Gold.PLP.Fitness>
30.3447

> <Gold.PLP.PLP>
-32.1265

> <Gold.PLP.part.hbond>
-2.1491

> <Gold.PLP.part.metal>
0.0000

> <Gold.PLP.part.buried>
-7.6018

> <Gold.PLP.part.nonpolar>
-23.9118

> <Gold.PLP.part.repulsive>
0.8397

> <Gold.PLP.ligand.clash>
0.8574

> <Gold.PLP.ligand.torsion>
0.4622

> <Gold.PLP.Chemscore.Hbond>
0.0000

> <Gold.PLP.Chemscore.CHOScore>
0.0000

> <Gold.PLP.Chemscore.Metal>
0.0000

> <Gold.PLP.Chemscore.Internal.Correction>
   9.000000E+99

