#       Name:                CT1002167954
#       Creating user name   hitesit
#       Creation time:       Sun Apr 16 22:56:57 2023


#       File generated by GOLD software.
#

@<TRIPOS>MOLECULE
CT1002167954|ligand_prepared|mol2|1|dock7
    29    30     1
SMALL
NO_CHARGES


@<TRIPOS>ATOM
      1 C1         131.9941 127.9385 121.8662 C.3            1 RES1               0.0000
      2 C2         131.6456 127.9344 120.3638 C.ar           1 RES1               0.0000
      3 C3         133.1595 126.9686 122.0384 C.2            1 RES1               0.0000
      4 C4         132.3289 129.3827 122.2225 C.2            1 RES1               0.0000
      5 C5         130.8332 127.4782 122.7782 C.3            1 RES1               0.0000
      6 C6         130.5742 128.6810 119.8829 C.ar           1 RES1               0.0000
      7 C7         132.3865 127.1923 119.4479 C.ar           1 RES1               0.0000
      8 N8         134.3950 127.4994 122.2653 N.am           1 RES1               0.0000
      9 O9         133.0035 125.7580 121.9372 O.2            1 RES1               0.0000
     10 N10        133.6149 129.6697 122.5988 N.am           1 RES1               0.0000
     11 O11        131.4946 130.2777 122.1648 O.2            1 RES1               0.0000
     12 C12        130.7536 128.2314 124.0968 C.3            1 RES1               0.0000
     13 C13        130.2567 128.6880 118.5347 C.ar           1 RES1               0.0000
     14 C14        132.0672 127.2005 118.1001 C.ar           1 RES1               0.0000
     15 C15        134.6705 128.7991 122.6067 C.2            1 RES1               0.0000
     16 C16        131.0031 127.9482 117.6425 C.ar           1 RES1               0.0000
     17 O17        135.8100 129.1448 122.9053 O.2            1 RES1               0.0000
     18 H18        129.8870 127.6096 122.2389 H              1 RES1               0.0000
     19 H19        130.9529 126.4084 122.9895 H              1 RES1               0.0000
     20 H20        129.9738 129.2675 120.5704 H              1 RES1               0.0000
     21 H21        133.2273 126.5958 119.7854 H              1 RES1               0.0000
     22 H22        135.1875 126.8720 122.1723 H              1 RES1               0.0000
     23 H23        133.8026 130.6203 122.9012 H              1 RES1               0.0000
     24 H24        129.9223 127.8695 124.6982 H              1 RES1               0.0000
     25 H25        131.6688 128.1019 124.6708 H              1 RES1               0.0000
     26 H26        130.6092 129.2960 123.9247 H              1 RES1               0.0000
     27 H27        129.4175 129.2771 118.1798 H              1 RES1               0.0000
     28 H28        132.6570 126.6163 117.4015 H              1 RES1               0.0000
     29 H29        130.7545 127.9542 116.5864 H              1 RES1               0.0000
@<TRIPOS>BOND
    1    1    2 1     
    2    1    3 1     
    3    1    4 1     
    4    1    5 1     
    5    2    6 ar    
    6    2    7 ar    
    7    3    8 1     
    8    3    9 2     
    9    4   10 1     
   10    4   11 2     
   11    5   12 1     
   12    5   18 1     
   13    5   19 1     
   14    6   13 ar    
   15    6   20 1     
   16    7   14 ar    
   17    7   21 1     
   18    8   15 1     
   19    8   22 1     
   20   10   15 1     
   21   10   23 1     
   22   12   24 1     
   23   12   25 1     
   24   12   26 1     
   25   13   16 ar    
   26   13   27 1     
   27   14   16 ar    
   28   14   28 1     
   29   15   17 2     
   30   16   29 1     
@<TRIPOS>SUBSTRUCTURE
      1 RES1           1
@<TRIPOS>SET
DONOR_HYDROGENS      STATIC     ATOMS    <user>   **** ""
2 22 23
ATOM$RED        STATIC     ATOMS    COLORGROUP SYSTEM
2 22 23
@<TRIPOS>COMMENT
> <Gold.Version>
2022.3.0

> <Gold.Id.Protein>
unknown|7rmi_cavity_clean|pdb

> <Gold.Protein.RotatedTorsions>
[ 10523 10518 10517 10514 ] final  -58.13 input   59.99 | X-H torsion
[ 10439 10432 10433 10434 ] final   -5.47 input  118.28 | X-H torsion
[ 10311 10303 10304 10305 ] final -179.30 input  114.60 | X-H torsion
[ 11130 11118 11119 11120 ] final  -80.71 input  109.13 | X-H torsion
[ 11138 11129 11128 11126 ] final   67.03 input   60.00 | X-H torsion
[ 11928 11921 11919 11916 ] final   -7.50 input   60.00 | X-H torsion
[ 12976 12967 12966 12964 ] final -142.50 input   60.00 | X-H torsion

> <Gold.Protein.ActiveResidues>
 ASN392  LEU393  ILE32   VAL41   SER46   TYR92   HIS95   TRP98   ALA133  ILE135 
 HIS136  LEU138  ARG141  THR145  TYR216  VAL219  LEU223  GLN239  VAL252  VAL254 
 CYS255  PHE257  ALA258  TRP261  LEU262  ILE266  MET299  PRO302  ILE303  CYS306 
 CYS307 

> <Gold.Protein.RotatedAtoms>
  111.3327  136.1833   97.8543 H   0  0  0  0  0  0  0  0  0  0  0  0  # atno 10311 bound_to 10303
  114.1412  136.2977  111.9845 H   0  0  0  0  0  0  0  0  0  0  0  0  # atno 10439 bound_to 10432
  122.2065  137.3307  118.0273 H   0  0  0  0  0  0  0  0  0  0  0  0  # atno 10523 bound_to 10518
  119.5136  144.7526  101.8248 H   0  0  0  0  0  0  0  0  0  0  0  0  # atno 11130 bound_to 11118
  126.3836  146.5952   96.3465 H   0  0  0  0  0  0  0  0  0  0  0  0  # atno 11138 bound_to 11129
  144.9451  144.6975  135.2754 H   0  0  0  0  0  0  0  0  0  0  0  0  # atno 11928 bound_to 11921
  133.8326  125.8510  124.0243 H   0  0  0  0  0  0  0  0  0  0  0  0  # atno 12976 bound_to 12967
  122.6649  136.5965  116.6496 LP  0  0  0  0  0  0  0  0  0  0  0  0  # atno 14322 bound_to 10518
  122.5441  135.7391  118.0341 LP  0  0  0  0  0  0  0  0  0  0  0  0  # atno 14323 bound_to 10518
  125.4877  145.5619   95.4647 LP  0  0  0  0  0  0  0  0  0  0  0  0  # atno 14344 bound_to 11129
  126.7748  145.0161   96.3085 LP  0  0  0  0  0  0  0  0  0  0  0  0  # atno 14345 bound_to 11129
  146.4566  145.2987  135.2336 LP  0  0  0  0  0  0  0  0  0  0  0  0  # atno 14348 bound_to 11921
  146.1181  143.9968  136.1593 LP  0  0  0  0  0  0  0  0  0  0  0  0  # atno 14349 bound_to 11921
  135.2655  126.5823  123.7810 LP  0  0  0  0  0  0  0  0  0  0  0  0  # atno 14354 bound_to 12967
  134.9296  125.8976  125.2249 LP  0  0  0  0  0  0  0  0  0  0  0  0  # atno 14355 bound_to 12967

> <Gold.Score>
     Fitness  S(hb_ext) S(vdw_ext)  S(hb_int)    S(int)      intcor
      0.00       0.03      -9.26       0.00     -15.88      -0.76

> <Gold.Goldscore.Fitness>
0.0000

> <Gold.Goldscore.Internal.Vdw>
-13.9356

> <Gold.Goldscore.Internal.Torsion>
-2.7016

> <Gold.Goldscore.External.Vdw>
-9.2608

> <Gold.Goldscore.Internal.HBond>
0.0000

> <Gold.Goldscore.External.HBond>
0.0268

> <Gold.Goldscore.Internal.Correction>
-0.7585

> <Gold.Goldscore.Internal.Vdw.Weighted>
-13.9356

> <Gold.Goldscore.Internal.Torsion.Weighted>
-2.7016

> <Gold.Goldscore.External.Vdw.Weighted>
-12.7336

> <Gold.Goldscore.Internal.HBond.Weighted>
0.0000

> <Gold.Goldscore.External.HBond.Weighted>
0.0268

> <Gold.Goldscore.Internal.Correction.Weighted>
-0.7585

> <Gold.Rescore>
     Score     S(PLP)   S(hbond)     S(cho)   S(metal)  DE(clash)   DE(tors)     intcor
    -19.41      14.93       0.00       0.00       0.00       2.96       0.76       ----

> <Gold.PLP.Fitness>
-19.4137

> <Gold.PLP.PLP>
14.9296

> <Gold.PLP.part.hbond>
-4.0000

> <Gold.PLP.part.metal>
0.0000

> <Gold.PLP.part.buried>
32.5574

> <Gold.PLP.part.nonpolar>
-23.3209

> <Gold.PLP.part.repulsive>
9.4684

> <Gold.PLP.ligand.clash>
2.9559

> <Gold.PLP.ligand.torsion>
0.7641

> <Gold.PLP.Chemscore.Hbond>
0.0000

> <Gold.PLP.Chemscore.CHOScore>
0.0000

> <Gold.PLP.Chemscore.Metal>
0.0000

> <Gold.Chemscore.Hbonds>
donor molecule, donor type, donor heavy atom, donor atom, acceptor molecule, acceptor atom, score
      P1  H 12967 12976       L1     9  0.02

> <Gold.PLP.Chemscore.Internal.Correction>
   9.000000E+99

