#       Name:                CT1002167954
#       Creating user name   hitesit
#       Creation time:       Sun Apr 16 22:56:58 2023


#       File generated by GOLD software.
#

@<TRIPOS>MOLECULE
CT1002167954|ligand_prepared|mol2|1|dock8
    29    30     1
SMALL
NO_CHARGES


@<TRIPOS>ATOM
      1 C1         141.2488 129.9167 141.5317 C.3            1 RES1               0.0000
      2 C2         139.7451 130.0091 141.8619 C.ar           1 RES1               0.0000
      3 C3         141.6007 128.4321 141.5478 C.2            1 RES1               0.0000
      4 C4         141.4289 130.5840 140.1727 C.2            1 RES1               0.0000
      5 C5         142.1576 130.6480 142.5471 C.3            1 RES1               0.0000
      6 C6         139.0585 131.2099 141.7095 C.ar           1 RES1               0.0000
      7 C7         139.0317 128.9032 142.3166 C.ar           1 RES1               0.0000
      8 N8         141.8141 127.8203 140.3478 N.am           1 RES1               0.0000
      9 O9         141.6512 127.7987 142.5950 O.2            1 RES1               0.0000
     10 N10        141.8245 129.8008 139.1202 N.am           1 RES1               0.0000
     11 O11        141.2157 131.7778 140.0001 O.2            1 RES1               0.0000
     12 C12        141.6851 132.0512 142.8932 C.3            1 RES1               0.0000
     13 C13        137.7070 131.3014 141.9982 C.ar           1 RES1               0.0000
     14 C14        137.6802 128.9969 142.6050 C.ar           1 RES1               0.0000
     15 C15        141.9956 128.4434 139.1393 C.2            1 RES1               0.0000
     16 C16        137.0169 130.1950 142.4457 C.ar           1 RES1               0.0000
     17 O17        142.2997 127.8013 138.1381 O.2            1 RES1               0.0000
     18 H18        142.2065 130.0546 143.4684 H              1 RES1               0.0000
     19 H19        143.1717 130.7089 142.1334 H              1 RES1               0.0000
     20 H20        139.5855 132.0918 141.3607 H              1 RES1               0.0000
     21 H21        139.5330 127.9507 142.4505 H              1 RES1               0.0000
     22 H22        141.8413 126.8056 140.3491 H              1 RES1               0.0000
     23 H23        142.0087 130.2735 138.2410 H              1 RES1               0.0000
     24 H24        142.3578 132.5192 143.6089 H              1 RES1               0.0000
     25 H25        141.6488 132.6764 142.0035 H              1 RES1               0.0000
     26 H26        140.6892 132.0259 143.3306 H              1 RES1               0.0000
     27 H27        137.1900 132.2469 141.8725 H              1 RES1               0.0000
     28 H28        137.1411 128.1238 142.9576 H              1 RES1               0.0000
     29 H29        135.9581 130.2668 142.6715 H              1 RES1               0.0000
@<TRIPOS>BOND
    1    1    2 1     
    2    1    3 1     
    3    1    4 1     
    4    1    5 1     
    5    2    6 ar    
    6    2    7 ar    
    7    3    8 1     
    8    3    9 2     
    9    4   10 1     
   10    4   11 2     
   11    5   12 1     
   12    5   18 1     
   13    5   19 1     
   14    6   13 ar    
   15    6   20 1     
   16    7   14 ar    
   17    7   21 1     
   18    8   15 1     
   19    8   22 1     
   20   10   15 1     
   21   10   23 1     
   22   12   24 1     
   23   12   25 1     
   24   12   26 1     
   25   13   16 ar    
   26   13   27 1     
   27   14   16 ar    
   28   14   28 1     
   29   15   17 2     
   30   16   29 1     
@<TRIPOS>SUBSTRUCTURE
      1 RES1           1
@<TRIPOS>SET
DONOR_HYDROGENS      STATIC     ATOMS    <user>   **** ""
2 22 23
ATOM$RED        STATIC     ATOMS    COLORGROUP SYSTEM
2 22 23
@<TRIPOS>COMMENT
> <Gold.Version>
2022.3.0

> <Gold.Id.Protein>
unknown|7rmi_cavity_clean|pdb

> <Gold.Protein.RotatedTorsions>
[ 10523 10518 10517 10514 ] final  -31.41 input   59.99 | X-H torsion
[ 10439 10432 10433 10434 ] final  119.69 input  118.28 | X-H torsion
[ 10311 10303 10304 10305 ] final   -0.71 input  114.60 | X-H torsion
[ 11130 11118 11119 11120 ] final  -55.40 input  109.13 | X-H torsion
[ 11138 11129 11128 11126 ] final   60.00 input   60.00 | X-H torsion
[ 11928 11921 11919 11916 ] final -149.53 input   60.00 | X-H torsion
[ 12976 12967 12966 12964 ] final   64.21 input   60.00 | X-H torsion

> <Gold.Protein.ActiveResidues>
 ASN392  LEU393  ILE32   VAL41   SER46   TYR92   HIS95   TRP98   ALA133  ILE135 
 HIS136  LEU138  ARG141  THR145  TYR216  VAL219  LEU223  GLN239  VAL252  VAL254 
 CYS255  PHE257  ALA258  TRP261  LEU262  ILE266  MET299  PRO302  ILE303  CYS306 
 CYS307 

> <Gold.Protein.RotatedAtoms>
  110.2639  135.5841   99.1315 H   0  0  0  0  0  0  0  0  0  0  0  0  # atno 10311 bound_to 10303
  113.0074  135.4419  111.3146 H   0  0  0  0  0  0  0  0  0  0  0  0  # atno 10439 bound_to 10432
  122.2035  137.0272  118.3354 H   0  0  0  0  0  0  0  0  0  0  0  0  # atno 10523 bound_to 10518
  119.4728  144.3792  101.7404 H   0  0  0  0  0  0  0  0  0  0  0  0  # atno 11130 bound_to 11118
  126.2920  146.6270   96.2850 H   0  0  0  0  0  0  0  0  0  0  0  0  # atno 11138 bound_to 11129
  146.6615  145.0962  135.4479 H   0  0  0  0  0  0  0  0  0  0  0  0  # atno 11928 bound_to 11921
  135.5131  126.5144  124.2539 H   0  0  0  0  0  0  0  0  0  0  0  0  # atno 12976 bound_to 12967
  122.5567  137.0071  116.7472 LP  0  0  0  0  0  0  0  0  0  0  0  0  # atno 14322 bound_to 10518
  122.6554  135.6343  117.6261 LP  0  0  0  0  0  0  0  0  0  0  0  0  # atno 14323 bound_to 10518
  125.5207  145.4510   95.4662 LP  0  0  0  0  0  0  0  0  0  0  0  0  # atno 14344 bound_to 11129
  126.8341  145.0949   96.3688 LP  0  0  0  0  0  0  0  0  0  0  0  0  # atno 14345 bound_to 11129
  145.7687  143.9156  136.1242 LP  0  0  0  0  0  0  0  0  0  0  0  0  # atno 14348 bound_to 11921
  145.0773  144.9783  135.0950 LP  0  0  0  0  0  0  0  0  0  0  0  0  # atno 14349 bound_to 11921
  134.4314  125.7009  125.1569 LP  0  0  0  0  0  0  0  0  0  0  0  0  # atno 14354 bound_to 12967
  134.0710  126.1108  123.6178 LP  0  0  0  0  0  0  0  0  0  0  0  0  # atno 14355 bound_to 12967

> <Gold.Score>
     Fitness  S(hb_ext) S(vdw_ext)  S(hb_int)    S(int)      intcor
      0.00       0.75      16.33       0.00     -12.83      -0.76

> <Gold.Goldscore.Fitness>
0.0000

> <Gold.Goldscore.Internal.Vdw>
-12.8830

> <Gold.Goldscore.Internal.Torsion>
-0.7057

> <Gold.Goldscore.External.Vdw>
16.3329

> <Gold.Goldscore.Internal.HBond>
0.0000

> <Gold.Goldscore.External.HBond>
0.7530

> <Gold.Goldscore.Internal.Correction>
-0.7585

> <Gold.Goldscore.Hbonds>
donor molecule, donor type, donor heavy atom, donor atom, acceptor molecule, acceptor atom, score
      P1  H 11851 11862       L1    11  0.07

> <Gold.Goldscore.Internal.Vdw.Weighted>
-12.8830

> <Gold.Goldscore.Internal.Torsion.Weighted>
-0.7057

> <Gold.Goldscore.External.Vdw.Weighted>
22.4578

> <Gold.Goldscore.Internal.HBond.Weighted>
0.0000

> <Gold.Goldscore.External.HBond.Weighted>
0.7530

> <Gold.Goldscore.Internal.Correction.Weighted>
-0.7585

> <Gold.Rescore>
     Score     S(PLP)   S(hbond)     S(cho)   S(metal)  DE(clash)   DE(tors)     intcor
     14.55     -16.50       0.00       0.00       0.00       0.99       0.48       ----

> <Gold.PLP.Fitness>
14.5516

> <Gold.PLP.PLP>
-16.5048

> <Gold.PLP.part.hbond>
-0.4716

> <Gold.PLP.part.metal>
0.0000

> <Gold.PLP.part.buried>
-2.9261

> <Gold.PLP.part.nonpolar>
-13.2058

> <Gold.PLP.part.repulsive>
0.4817

> <Gold.PLP.ligand.clash>
0.9884

> <Gold.PLP.ligand.torsion>
0.4824

> <Gold.PLP.Chemscore.Hbond>
0.0000

> <Gold.PLP.Chemscore.CHOScore>
0.0000

> <Gold.PLP.Chemscore.Metal>
0.0000

> <Gold.PLP.Chemscore.Internal.Correction>
   9.000000E+99

