#       Name:                CT1002167954
#       Creating user name   hitesit
#       Creation time:       Sun Apr 16 22:56:55 2023


#       File generated by GOLD software.
#

@<TRIPOS>MOLECULE
CT1002167954|ligand_prepared|mol2|1|dock6
    29    30     1
SMALL
NO_CHARGES


@<TRIPOS>ATOM
      1 C1         135.0870 130.5670 130.2932 C.3            1 RES1               0.0000
      2 C2         135.8297 129.2979 130.7585 C.ar           1 RES1               0.0000
      3 C3         133.6071 130.2002 130.2347 C.2            1 RES1               0.0000
      4 C4         135.4192 131.6529 131.3107 C.2            1 RES1               0.0000
      5 C5         135.5239 131.0703 128.8977 C.3            1 RES1               0.0000
      6 C6         135.1389 128.1070 130.9617 C.ar           1 RES1               0.0000
      7 C7         137.2034 129.3018 130.9857 C.ar           1 RES1               0.0000
      8 N8         132.7948 130.6932 131.2130 N.am           1 RES1               0.0000
      9 O9         133.1667 129.4575 129.3660 O.2            1 RES1               0.0000
     10 N10        134.3995 132.1400 132.0859 N.am           1 RES1               0.0000
     11 O11        136.5577 132.0792 131.4598 O.2            1 RES1               0.0000
     12 C12        136.6208 132.1225 128.9411 C.3            1 RES1               0.0000
     13 C13        135.7979 126.9607 131.3742 C.ar           1 RES1               0.0000
     14 C14        137.8604 128.1544 131.3984 C.ar           1 RES1               0.0000
     15 C15        133.1083 131.6876 132.1045 C.2            1 RES1               0.0000
     16 C16        137.1589 126.9835 131.5923 C.ar           1 RES1               0.0000
     17 O17        132.2606 132.1394 132.8690 O.2            1 RES1               0.0000
     18 H18        135.8779 130.2152 128.3088 H              1 RES1               0.0000
     19 H19        134.6504 131.4919 128.3850 H              1 RES1               0.0000
     20 H20        134.0671 128.0706 130.7974 H              1 RES1               0.0000
     21 H21        137.7755 130.2119 130.8405 H              1 RES1               0.0000
     22 H22        131.8687 130.2847 131.2889 H              1 RES1               0.0000
     23 H23        134.6238 132.9113 132.7064 H              1 RES1               0.0000
     24 H24        136.8896 132.4411 127.9361 H              1 RES1               0.0000
     25 H25        136.2936 132.9981 129.4979 H              1 RES1               0.0000
     26 H26        137.5138 131.7290 129.4222 H              1 RES1               0.0000
     27 H27        135.2410 126.0421 131.5267 H              1 RES1               0.0000
     28 H28        138.9316 128.1771 131.5695 H              1 RES1               0.0000
     29 H29        137.6749 126.0853 131.9151 H              1 RES1               0.0000
@<TRIPOS>BOND
    1    1    2 1     
    2    1    3 1     
    3    1    4 1     
    4    1    5 1     
    5    2    6 ar    
    6    2    7 ar    
    7    3    8 1     
    8    3    9 2     
    9    4   10 1     
   10    4   11 2     
   11    5   12 1     
   12    5   18 1     
   13    5   19 1     
   14    6   13 ar    
   15    6   20 1     
   16    7   14 ar    
   17    7   21 1     
   18    8   15 1     
   19    8   22 1     
   20   10   15 1     
   21   10   23 1     
   22   12   24 1     
   23   12   25 1     
   24   12   26 1     
   25   13   16 ar    
   26   13   27 1     
   27   14   16 ar    
   28   14   28 1     
   29   15   17 2     
   30   16   29 1     
@<TRIPOS>SUBSTRUCTURE
      1 RES1           1
@<TRIPOS>SET
DONOR_HYDROGENS      STATIC     ATOMS    <user>   **** ""
2 22 23
ATOM$RED        STATIC     ATOMS    COLORGROUP SYSTEM
2 22 23
@<TRIPOS>COMMENT
> <Gold.Version>
2022.3.0

> <Gold.Id.Protein>
unknown|7rmi_cavity_clean|pdb

> <Gold.Protein.RotatedTorsions>
[ 10523 10518 10517 10514 ] final  -59.54 input   59.99 | X-H torsion
[ 10439 10432 10433 10434 ] final  -20.94 input  118.28 | X-H torsion
[ 10311 10303 10304 10305 ] final  -21.80 input  114.60 | X-H torsion
[ 11130 11118 11119 11120 ] final  -18.84 input  109.13 | X-H torsion
[ 11138 11129 11128 11126 ] final  -32.81 input   60.00 | X-H torsion
[ 11928 11921 11919 11916 ] final  158.44 input   60.00 | X-H torsion
[ 12976 12967 12966 12964 ] final   17.81 input   60.00 | X-H torsion

> <Gold.Protein.ActiveResidues>
 ASN392  LEU393  ILE32   VAL41   SER46   TYR92   HIS95   TRP98   ALA133  ILE135 
 HIS136  LEU138  ARG141  THR145  TYR216  VAL219  LEU223  GLN239  VAL252  VAL254 
 CYS255  PHE257  ALA258  TRP261  LEU262  ILE266  MET299  PRO302  ILE303  CYS306 
 CYS307 

> <Gold.Protein.RotatedAtoms>
  110.5374  135.4233   99.1974 H   0  0  0  0  0  0  0  0  0  0  0  0  # atno 10311 bound_to 10303
  114.0440  136.4646  112.1239 H   0  0  0  0  0  0  0  0  0  0  0  0  # atno 10439 bound_to 10432
  122.2083  137.3426  118.0077 H   0  0  0  0  0  0  0  0  0  0  0  0  # atno 10523 bound_to 10518
  119.6659  143.8637  101.7707 H   0  0  0  0  0  0  0  0  0  0  0  0  # atno 11130 bound_to 11118
  125.4593  145.8861   95.5127 H   0  0  0  0  0  0  0  0  0  0  0  0  # atno 11138 bound_to 11129
  146.6571  144.4495  135.9541 H   0  0  0  0  0  0  0  0  0  0  0  0  # atno 11928 bound_to 11921
  135.4023  126.2182  124.9201 H   0  0  0  0  0  0  0  0  0  0  0  0  # atno 12976 bound_to 12967
  122.6696  136.5738  116.6499 LP  0  0  0  0  0  0  0  0  0  0  0  0  # atno 14322 bound_to 10518
  122.5376  135.7498  118.0535 LP  0  0  0  0  0  0  0  0  0  0  0  0  # atno 14323 bound_to 10518
  126.5621  144.8528   96.1165 LP  0  0  0  0  0  0  0  0  0  0  0  0  # atno 14344 bound_to 11129
  126.6315  146.4395   96.4965 LP  0  0  0  0  0  0  0  0  0  0  0  0  # atno 14345 bound_to 11129
  145.0717  144.1484  135.7446 LP  0  0  0  0  0  0  0  0  0  0  0  0  # atno 14348 bound_to 11921
  145.7786  145.3970  134.9648 LP  0  0  0  0  0  0  0  0  0  0  0  0  # atno 14349 bound_to 11921
  133.9014  125.6571  124.6381 LP  0  0  0  0  0  0  0  0  0  0  0  0  # atno 14354 bound_to 12967
  134.7125  126.4530  123.4654 LP  0  0  0  0  0  0  0  0  0  0  0  0  # atno 14355 bound_to 12967

> <Gold.Score>
     Fitness  S(hb_ext) S(vdw_ext)  S(hb_int)    S(int)      intcor
      0.00       0.14       2.41       0.00     -17.55      -0.76

> <Gold.Goldscore.Fitness>
0.0000

> <Gold.Goldscore.Internal.Vdw>
-15.6704

> <Gold.Goldscore.Internal.Torsion>
-2.6384

> <Gold.Goldscore.External.Vdw>
2.4083

> <Gold.Goldscore.Internal.HBond>
0.0000

> <Gold.Goldscore.External.HBond>
0.1416

> <Gold.Goldscore.Internal.Correction>
-0.7585

> <Gold.Goldscore.Hbonds>
donor molecule, donor type, donor heavy atom, donor atom, acceptor molecule, acceptor atom, score
      P1  H  3275  3282       L1     9  0.08

> <Gold.Goldscore.Internal.Vdw.Weighted>
-15.6704

> <Gold.Goldscore.Internal.Torsion.Weighted>
-2.6384

> <Gold.Goldscore.External.Vdw.Weighted>
3.3114

> <Gold.Goldscore.Internal.HBond.Weighted>
0.0000

> <Gold.Goldscore.External.HBond.Weighted>
0.1416

> <Gold.Goldscore.Internal.Correction.Weighted>
-0.7585

> <Gold.Rescore>
     Score     S(PLP)   S(hbond)     S(cho)   S(metal)  DE(clash)   DE(tors)     intcor
    -47.86      34.79       0.10       0.00       0.00      11.91       0.72       ----

> <Gold.PLP.Fitness>
-47.8591

> <Gold.PLP.PLP>
34.7921

> <Gold.PLP.part.hbond>
1.1590

> <Gold.PLP.part.metal>
0.0000

> <Gold.PLP.part.buried>
19.2666

> <Gold.PLP.part.nonpolar>
0.5757

> <Gold.PLP.part.repulsive>
12.0057

> <Gold.PLP.ligand.clash>
11.9086

> <Gold.PLP.ligand.torsion>
0.7232

> <Gold.PLP.Chemscore.Hbond>
0.0960

> <Gold.PLP.Chemscore.CHOScore>
0.0000

> <Gold.PLP.Chemscore.Metal>
0.0000

> <Gold.Chemscore.Hbonds>
donor molecule, donor type, donor heavy atom, donor atom, acceptor molecule, acceptor atom, score
      P1  H  3275  3281       L1    17  0.10

> <Gold.PLP.Chemscore.Internal.Correction>
   9.000000E+99

