#       Name:                CT1002167954
#       Creating user name   hitesit
#       Creation time:       Sun Apr 16 22:56:49 2023


#       File generated by GOLD software.
#

@<TRIPOS>MOLECULE
CT1002167954|ligand_prepared|mol2|1|dock2
    29    30     1
SMALL
NO_CHARGES


@<TRIPOS>ATOM
      1 C1         142.6397 128.5362 141.7456 C.3            1 RES1               0.0000
      2 C2         142.6296 129.9987 142.2351 C.ar           1 RES1               0.0000
      3 C3         141.2793 128.2913 141.0993 C.2            1 RES1               0.0000
      4 C4         143.8162 128.4165 140.7833 C.2            1 RES1               0.0000
      5 C5         142.8400 127.5003 142.8762 C.3            1 RES1               0.0000
      6 C6         141.4446 130.7280 142.2645 C.ar           1 RES1               0.0000
      7 C7         143.7946 130.6303 142.6621 C.ar           1 RES1               0.0000
      8 N8         141.2304 128.2174 139.7384 N.am           1 RES1               0.0000
      9 O9         140.2591 128.2038 141.7714 O.2            1 RES1               0.0000
     10 N10        143.5438 128.1621 139.4646 N.am           1 RES1               0.0000
     11 O11        144.9758 128.5568 141.1519 O.2            1 RES1               0.0000
     12 C12        142.6554 128.0733 144.2726 C.3            1 RES1               0.0000
     13 C13        141.4245 132.0401 142.7075 C.ar           1 RES1               0.0000
     14 C14        143.7723 131.9427 143.1046 C.ar           1 RES1               0.0000
     15 C15        142.3029 128.0876 138.8930 C.2            1 RES1               0.0000
     16 C16        142.5880 132.6481 143.1282 C.ar           1 RES1               0.0000
     17 O17        142.1392 127.9101 137.6893 O.2            1 RES1               0.0000
     18 H18        142.1260 126.6798 142.7340 H              1 RES1               0.0000
     19 H19        143.8512 127.0823 142.7970 H              1 RES1               0.0000
     20 H20        140.5194 130.2670 141.9349 H              1 RES1               0.0000
     21 H21        144.7380 130.0951 142.6512 H              1 RES1               0.0000
     22 H22        140.3115 128.2628 139.3097 H              1 RES1               0.0000
     23 H23        144.3399 128.0145 138.8524 H              1 RES1               0.0000
     24 H24        142.8070 127.3050 145.0279 H              1 RES1               0.0000
     25 H25        143.3668 128.8755 144.4575 H              1 RES1               0.0000
     26 H26        141.6518 128.4754 144.3948 H              1 RES1               0.0000
     27 H27        140.4901 132.5914 142.7229 H              1 RES1               0.0000
     28 H28        144.6906 132.4174 143.4342 H              1 RES1               0.0000
     29 H29        142.5719 133.6759 143.4756 H              1 RES1               0.0000
@<TRIPOS>BOND
    1    1    2 1     
    2    1    3 1     
    3    1    4 1     
    4    1    5 1     
    5    2    6 ar    
    6    2    7 ar    
    7    3    8 1     
    8    3    9 2     
    9    4   10 1     
   10    4   11 2     
   11    5   12 1     
   12    5   18 1     
   13    5   19 1     
   14    6   13 ar    
   15    6   20 1     
   16    7   14 ar    
   17    7   21 1     
   18    8   15 1     
   19    8   22 1     
   20   10   15 1     
   21   10   23 1     
   22   12   24 1     
   23   12   25 1     
   24   12   26 1     
   25   13   16 ar    
   26   13   27 1     
   27   14   16 ar    
   28   14   28 1     
   29   15   17 2     
   30   16   29 1     
@<TRIPOS>SUBSTRUCTURE
      1 RES1           1
@<TRIPOS>SET
DONOR_HYDROGENS      STATIC     ATOMS    <user>   **** ""
2 22 23
ATOM$RED        STATIC     ATOMS    COLORGROUP SYSTEM
2 22 23
@<TRIPOS>COMMENT
> <Gold.Version>
2022.3.0

> <Gold.Id.Protein>
unknown|7rmi_cavity_clean|pdb

> <Gold.Protein.RotatedTorsions>
[ 10523 10518 10517 10514 ] final  -39.31 input   59.99 | X-H torsion
[ 10439 10432 10433 10434 ] final  -75.54 input  118.28 | X-H torsion
[ 10311 10303 10304 10305 ] final -163.16 input  114.60 | X-H torsion
[ 11130 11118 11119 11120 ] final  -31.65 input  109.13 | X-H torsion
[ 11138 11129 11128 11126 ] final  -73.02 input   60.00 | X-H torsion
[ 11928 11921 11919 11916 ] final   39.95 input   60.00 | X-H torsion
[ 12976 12967 12966 12964 ] final   65.03 input   60.00 | X-H torsion

> <Gold.Protein.ActiveResidues>
 ASN392  LEU393  ILE32   VAL41   SER46   TYR92   HIS95   TRP98   ALA133  ILE135 
 HIS136  LEU138  ARG141  THR145  TYR216  VAL219  LEU223  GLN239  VAL252  VAL254 
 CYS255  PHE257  ALA258  TRP261  LEU262  ILE266  MET299  PRO302  ILE303  CYS306 
 CYS307 

> <Gold.Protein.RotatedAtoms>
  111.4917  136.0296   97.9678 H   0  0  0  0  0  0  0  0  0  0  0  0  # atno 10311 bound_to 10303
  113.3477  136.7775  112.3992 H   0  0  0  0  0  0  0  0  0  0  0  0  # atno 10439 bound_to 10432
  122.1983  137.1308  118.2590 H   0  0  0  0  0  0  0  0  0  0  0  0  # atno 10523 bound_to 10518
  119.5668  144.0299  101.7392 H   0  0  0  0  0  0  0  0  0  0  0  0  # atno 11130 bound_to 11118
  125.6123  145.2611   95.4970 H   0  0  0  0  0  0  0  0  0  0  0  0  # atno 11138 bound_to 11129
  145.0912  144.1367  135.7567 H   0  0  0  0  0  0  0  0  0  0  0  0  # atno 11928 bound_to 11921
  135.5100  126.5177  124.2413 H   0  0  0  0  0  0  0  0  0  0  0  0  # atno 12976 bound_to 12967
  122.5917  136.8920  116.6983 LP  0  0  0  0  0  0  0  0  0  0  0  0  # atno 14322 bound_to 10518
  122.6256  135.6449  117.7520 LP  0  0  0  0  0  0  0  0  0  0  0  0  # atno 14323 bound_to 10518
  126.9188  145.2652   96.4671 LP  0  0  0  0  0  0  0  0  0  0  0  0  # atno 14344 bound_to 11129
  126.1206  146.6567   96.1618 LP  0  0  0  0  0  0  0  0  0  0  0  0  # atno 14345 bound_to 11129
  145.7545  145.3921  134.9618 LP  0  0  0  0  0  0  0  0  0  0  0  0  # atno 14348 bound_to 11921
  146.6730  144.4682  135.9463 LP  0  0  0  0  0  0  0  0  0  0  0  0  # atno 14349 bound_to 11921
  134.4433  125.7044  125.1620 LP  0  0  0  0  0  0  0  0  0  0  0  0  # atno 14354 bound_to 12967
  134.0621  126.1041  123.6253 LP  0  0  0  0  0  0  0  0  0  0  0  0  # atno 14355 bound_to 12967

> <Gold.Score>
     Fitness  S(hb_ext) S(vdw_ext)  S(hb_int)    S(int)      intcor
     15.22       0.29      21.77       0.00     -14.99      -0.76

> <Gold.Goldscore.Fitness>
15.2239

> <Gold.Goldscore.Internal.Vdw>
-13.2519

> <Gold.Goldscore.Internal.Torsion>
-2.4995

> <Gold.Goldscore.External.Vdw>
21.7652

> <Gold.Goldscore.Internal.HBond>
0.0000

> <Gold.Goldscore.External.HBond>
0.2896

> <Gold.Goldscore.Internal.Correction>
-0.7585

> <Gold.Goldscore.Hbonds>
donor molecule, donor type, donor heavy atom, donor atom, acceptor molecule, acceptor atom, score
      L1  H     8    22       P1 11804  0.14

> <Gold.Goldscore.Internal.Vdw.Weighted>
-13.2519

> <Gold.Goldscore.Internal.Torsion.Weighted>
-2.4995

> <Gold.Goldscore.External.Vdw.Weighted>
29.9271

> <Gold.Goldscore.Internal.HBond.Weighted>
0.0000

> <Gold.Goldscore.External.HBond.Weighted>
0.2896

> <Gold.Goldscore.Internal.Correction.Weighted>
-0.7585

> <Gold.Rescore>
     Score     S(PLP)   S(hbond)     S(cho)   S(metal)  DE(clash)   DE(tors)     intcor
     17.73     -22.10       0.00       0.00       0.00       1.59       1.39       ----

> <Gold.PLP.Fitness>
17.7266

> <Gold.PLP.PLP>
-22.1009

> <Gold.PLP.part.hbond>
-3.3127

> <Gold.PLP.part.metal>
0.0000

> <Gold.PLP.part.buried>
-5.2058

> <Gold.PLP.part.nonpolar>
-14.8480

> <Gold.PLP.part.repulsive>
0.8818

> <Gold.PLP.ligand.clash>
1.5873

> <Gold.PLP.ligand.torsion>
1.3935

> <Gold.PLP.Chemscore.Hbond>
0.0000

> <Gold.PLP.Chemscore.CHOScore>
0.0000

> <Gold.PLP.Chemscore.Metal>
0.0000

> <Gold.PLP.Chemscore.Internal.Correction>
   9.000000E+99

