#       Name:                CT1002167954
#       Creating user name   hitesit
#       Creation time:       Sun Apr 16 22:57:02 2023


#       File generated by GOLD software.
#

@<TRIPOS>MOLECULE
CT1002167954|ligand_prepared|mol2|1|dock10
    29    30     1
SMALL
NO_CHARGES


@<TRIPOS>ATOM
      1 C1         143.6897 130.4746 132.0830 C.3            1 RES1               0.0000
      2 C2         145.1795 130.2697 132.4257 C.ar           1 RES1               0.0000
      3 C3         143.3632 131.9218 132.4397 C.2            1 RES1               0.0000
      4 C4         143.5448 130.1514 130.6001 C.2            1 RES1               0.0000
      5 C5         142.7343 129.5473 132.8697 C.3            1 RES1               0.0000
      6 C6         145.5639 129.3410 133.3883 C.ar           1 RES1               0.0000
      7 C7         146.1791 130.9987 131.7871 C.ar           1 RES1               0.0000
      8 N8         143.2015 132.8045 131.4128 N.am           1 RES1               0.0000
      9 O9         143.2878 132.2914 133.6050 O.2            1 RES1               0.0000
     10 N10        143.1989 131.1704 129.7516 N.am           1 RES1               0.0000
     11 O11        143.7432 129.0271 130.1563 O.2            1 RES1               0.0000
     12 C12        141.3052 130.0610 132.9449 C.3            1 RES1               0.0000
     13 C13        146.8995 129.1460 133.6991 C.ar           1 RES1               0.0000
     14 C14        147.5141 130.8022 132.0995 C.ar           1 RES1               0.0000
     15 C15        143.0507 132.4888 130.0864 C.2            1 RES1               0.0000
     16 C16        147.8754 129.8760 133.0547 C.ar           1 RES1               0.0000
     17 O17        142.7921 133.3563 129.2571 O.2            1 RES1               0.0000
     18 H18        142.7298 128.5591 132.3934 H              1 RES1               0.0000
     19 H19        143.1201 129.4261 133.8895 H              1 RES1               0.0000
     20 H20        144.8098 128.7590 133.9076 H              1 RES1               0.0000
     21 H21        145.9182 131.7335 131.0331 H              1 RES1               0.0000
     22 H22        143.1918 133.7906 131.6532 H              1 RES1               0.0000
     23 H23        143.0368 130.9231 128.7806 H              1 RES1               0.0000
     24 H24        140.6772 129.3733 133.5073 H              1 RES1               0.0000
     25 H25        141.2694 131.0313 133.4359 H              1 RES1               0.0000
     26 H26        140.8814 130.1694 131.9487 H              1 RES1               0.0000
     27 H27        147.1785 128.4168 134.4525 H              1 RES1               0.0000
     28 H28        148.2788 131.3794 131.5903 H              1 RES1               0.0000
     29 H29        148.9216 129.7228 133.2981 H              1 RES1               0.0000
@<TRIPOS>BOND
    1    1    2 1     
    2    1    3 1     
    3    1    4 1     
    4    1    5 1     
    5    2    6 ar    
    6    2    7 ar    
    7    3    8 1     
    8    3    9 2     
    9    4   10 1     
   10    4   11 2     
   11    5   12 1     
   12    5   18 1     
   13    5   19 1     
   14    6   13 ar    
   15    6   20 1     
   16    7   14 ar    
   17    7   21 1     
   18    8   15 1     
   19    8   22 1     
   20   10   15 1     
   21   10   23 1     
   22   12   24 1     
   23   12   25 1     
   24   12   26 1     
   25   13   16 ar    
   26   13   27 1     
   27   14   16 ar    
   28   14   28 1     
   29   15   17 2     
   30   16   29 1     
@<TRIPOS>SUBSTRUCTURE
      1 RES1           1
@<TRIPOS>SET
DONOR_HYDROGENS      STATIC     ATOMS    <user>   **** ""
2 22 23
ATOM$RED        STATIC     ATOMS    COLORGROUP SYSTEM
2 22 23
@<TRIPOS>COMMENT
> <Gold.Version>
2022.3.0

> <Gold.Id.Protein>
unknown|7rmi_cavity_clean|pdb

> <Gold.Protein.RotatedTorsions>
[ 10523 10518 10517 10514 ] final  113.77 input   59.99 | X-H torsion
[ 10439 10432 10433 10434 ] final  -25.07 input  118.28 | X-H torsion
[ 10311 10303 10304 10305 ] final  168.66 input  114.60 | X-H torsion
[ 11130 11118 11119 11120 ] final -124.21 input  109.13 | X-H torsion
[ 11138 11129 11128 11126 ] final  -24.48 input   60.00 | X-H torsion
[ 11928 11921 11919 11916 ] final  -34.53 input   60.00 | X-H torsion
[ 12976 12967 12966 12964 ] final  -79.64 input   60.00 | X-H torsion

> <Gold.Protein.ActiveResidues>
 ASN392  LEU393  ILE32   VAL41   SER46   TYR92   HIS95   TRP98   ALA133  ILE135 
 HIS136  LEU138  ARG141  THR145  TYR216  VAL219  LEU223  GLN239  VAL252  VAL254 
 CYS255  PHE257  ALA258  TRP261  LEU262  ILE266  MET299  PRO302  ILE303  CYS306 
 CYS307 

> <Gold.Protein.RotatedAtoms>
  111.1854  136.2834   97.8019 H   0  0  0  0  0  0  0  0  0  0  0  0  # atno 10311 bound_to 10303
  114.0084  136.5051  112.1580 H   0  0  0  0  0  0  0  0  0  0  0  0  # atno 10439 bound_to 10432
  122.7209  135.7219  117.2314 H   0  0  0  0  0  0  0  0  0  0  0  0  # atno 10523 bound_to 10518
  119.8861  145.1999  102.1168 H   0  0  0  0  0  0  0  0  0  0  0  0  # atno 11130 bound_to 11118
  125.4731  146.0163   95.5499 H   0  0  0  0  0  0  0  0  0  0  0  0  # atno 11138 bound_to 11129
  145.1308  145.0330  135.0647 H   0  0  0  0  0  0  0  0  0  0  0  0  # atno 11928 bound_to 11921
  134.1192  125.6417  124.9336 H   0  0  0  0  0  0  0  0  0  0  0  0  # atno 12976 bound_to 12967
  122.2532  136.6489  118.4842 LP  0  0  0  0  0  0  0  0  0  0  0  0  # atno 14322 bound_to 10518
  122.4376  137.3075  117.0014 LP  0  0  0  0  0  0  0  0  0  0  0  0  # atno 14323 bound_to 10518
  126.4599  144.8159   96.0329 LP  0  0  0  0  0  0  0  0  0  0  0  0  # atno 14344 bound_to 11129
  126.7198  146.3453   96.5427 LP  0  0  0  0  0  0  0  0  0  0  0  0  # atno 14345 bound_to 11129
  146.6985  145.0452  135.5009 LP  0  0  0  0  0  0  0  0  0  0  0  0  # atno 14348 bound_to 11921
  145.6891  143.9123  136.1043 LP  0  0  0  0  0  0  0  0  0  0  0  0  # atno 14349 bound_to 11921
  134.3762  126.3019  123.4689 LP  0  0  0  0  0  0  0  0  0  0  0  0  # atno 14354 bound_to 12967
  135.5302  126.3889  124.6210 LP  0  0  0  0  0  0  0  0  0  0  0  0  # atno 14355 bound_to 12967

> <Gold.Score>
     Fitness  S(hb_ext) S(vdw_ext)  S(hb_int)    S(int)      intcor
     10.70       0.00       9.44       0.00      -2.27      -0.76

> <Gold.Goldscore.Fitness>
10.7027

> <Gold.Goldscore.Internal.Vdw>
-2.6345

> <Gold.Goldscore.Internal.Torsion>
-0.3956

> <Gold.Goldscore.External.Vdw>
9.4358

> <Gold.Goldscore.Internal.HBond>
0.0000

> <Gold.Goldscore.External.HBond>
0.0000

> <Gold.Goldscore.Internal.Correction>
-0.7585

> <Gold.Goldscore.Internal.Vdw.Weighted>
-2.6345

> <Gold.Goldscore.Internal.Torsion.Weighted>
-0.3956

> <Gold.Goldscore.External.Vdw.Weighted>
12.9742

> <Gold.Goldscore.Internal.HBond.Weighted>
0.0000

> <Gold.Goldscore.External.HBond.Weighted>
0.0000

> <Gold.Goldscore.Internal.Correction.Weighted>
-0.7585

> <Gold.Rescore>
     Score     S(PLP)   S(hbond)     S(cho)   S(metal)  DE(clash)   DE(tors)     intcor
     13.47     -14.13       0.00       0.00       0.00       0.00       0.33       ----

> <Gold.PLP.Fitness>
13.4675

> <Gold.PLP.PLP>
-14.1324

> <Gold.PLP.part.hbond>
-0.9863

> <Gold.PLP.part.metal>
0.0000

> <Gold.PLP.part.buried>
24.1122

> <Gold.PLP.part.nonpolar>
-43.2924

> <Gold.PLP.part.repulsive>
4.2000

> <Gold.PLP.ligand.clash>
0.0000

> <Gold.PLP.ligand.torsion>
0.3325

> <Gold.PLP.Chemscore.Hbond>
0.0000

> <Gold.PLP.Chemscore.CHOScore>
0.0000

> <Gold.PLP.Chemscore.Metal>
0.0000

> <Gold.PLP.Chemscore.Internal.Correction>
   9.000000E+99

