#       Name:                CT1002167954
#       Creating user name   hitesit
#       Creation time:       Sun Apr 16 22:56:53 2023


#       File generated by GOLD software.
#

@<TRIPOS>MOLECULE
CT1002167954|ligand_prepared|mol2|1|dock5
    29    30     1
SMALL
NO_CHARGES


@<TRIPOS>ATOM
      1 C1         141.2524 130.1632 142.2625 C.3            1 RES1               0.0000
      2 C2         139.7253 129.9997 142.4035 C.ar           1 RES1               0.0000
      3 C3         141.7982 128.7874 141.8919 C.2            1 RES1               0.0000
      4 C4         141.4706 131.2278 141.1930 C.2            1 RES1               0.0000
      5 C5         141.9524 130.6368 143.5576 C.3            1 RES1               0.0000
      6 C6         139.1151 128.7793 142.1299 C.ar           1 RES1               0.0000
      7 C7         138.9154 131.0576 142.8080 C.ar           1 RES1               0.0000
      8 N8         142.2066 128.5953 140.6049 N.am           1 RES1               0.0000
      9 O9         141.8329 127.8731 142.7063 O.2            1 RES1               0.0000
     10 N10        142.0676 130.8466 140.0199 N.am           1 RES1               0.0000
     11 O11        141.1158 132.3897 141.3489 O.2            1 RES1               0.0000
     12 C12        141.4809 131.9970 144.0472 C.3            1 RES1               0.0000
     13 C13        137.7451 128.6212 142.2588 C.ar           1 RES1               0.0000
     14 C14        137.5456 130.8973 142.9361 C.ar           1 RES1               0.0000
     15 C15        142.4176 129.5722 139.6654 C.2            1 RES1               0.0000
     16 C16        136.9596 129.6798 142.6624 C.ar           1 RES1               0.0000
     17 O17        142.9004 129.2999 138.5700 O.2            1 RES1               0.0000
     18 H18        141.7735 129.8960 144.3467 H              1 RES1               0.0000
     19 H19        143.0337 130.6814 143.3786 H              1 RES1               0.0000
     20 H20        139.7167 127.9356 141.8087 H              1 RES1               0.0000
     21 H21        139.3544 132.0248 143.0276 H              1 RES1               0.0000
     22 H22        142.3702 127.6366 140.3142 H              1 RES1               0.0000
     23 H23        142.2699 131.5808 139.3489 H              1 RES1               0.0000
     24 H24        142.0035 132.2815 144.9581 H              1 RES1               0.0000
     25 H25        141.6666 132.7627 143.2968 H              1 RES1               0.0000
     26 H26        140.4138 131.9820 144.2592 H              1 RES1               0.0000
     27 H27        137.2887 127.6613 142.0409 H              1 RES1               0.0000
     28 H28        136.9311 131.7334 143.2534 H              1 RES1               0.0000
     29 H29        135.8865 129.5555 142.7637 H              1 RES1               0.0000
@<TRIPOS>BOND
    1    1    2 1     
    2    1    3 1     
    3    1    4 1     
    4    1    5 1     
    5    2    6 ar    
    6    2    7 ar    
    7    3    8 1     
    8    3    9 2     
    9    4   10 1     
   10    4   11 2     
   11    5   12 1     
   12    5   18 1     
   13    5   19 1     
   14    6   13 ar    
   15    6   20 1     
   16    7   14 ar    
   17    7   21 1     
   18    8   15 1     
   19    8   22 1     
   20   10   15 1     
   21   10   23 1     
   22   12   24 1     
   23   12   25 1     
   24   12   26 1     
   25   13   16 ar    
   26   13   27 1     
   27   14   16 ar    
   28   14   28 1     
   29   15   17 2     
   30   16   29 1     
@<TRIPOS>SUBSTRUCTURE
      1 RES1           1
@<TRIPOS>SET
DONOR_HYDROGENS      STATIC     ATOMS    <user>   **** ""
2 22 23
ATOM$RED        STATIC     ATOMS    COLORGROUP SYSTEM
2 22 23
@<TRIPOS>COMMENT
> <Gold.Version>
2022.3.0

> <Gold.Id.Protein>
unknown|7rmi_cavity_clean|pdb

> <Gold.Protein.RotatedTorsions>
[ 10523 10518 10517 10514 ] final -114.38 input   59.99 | X-H torsion
[ 10439 10432 10433 10434 ] final   50.78 input  118.28 | X-H torsion
[ 10311 10303 10304 10305 ] final  159.60 input  114.60 | X-H torsion
[ 11130 11118 11119 11120 ] final  -49.77 input  109.13 | X-H torsion
[ 11138 11129 11128 11126 ] final   68.44 input   60.00 | X-H torsion
[ 11928 11921 11919 11916 ] final  107.81 input   60.00 | X-H torsion
[ 12976 12967 12966 12964 ] final  142.96 input   60.00 | X-H torsion

> <Gold.Protein.ActiveResidues>
 ASN392  LEU393  ILE32   VAL41   SER46   TYR92   HIS95   TRP98   ALA133  ILE135 
 HIS136  LEU138  ARG141  THR145  TYR216  VAL219  LEU223  GLN239  VAL252  VAL254 
 CYS255  PHE257  ALA258  TRP261  LEU262  ILE266  MET299  PRO302  ILE303  CYS306 
 CYS307 

> <Gold.Protein.RotatedAtoms>
  111.0629  136.3475   97.7823 H   0  0  0  0  0  0  0  0  0  0  0  0  # atno 10311 bound_to 10303
  113.9710  135.6638  111.4699 H   0  0  0  0  0  0  0  0  0  0  0  0  # atno 10439 bound_to 10432
  122.3812  137.3955  117.1648 H   0  0  0  0  0  0  0  0  0  0  0  0  # atno 10523 bound_to 10518
  119.4837  144.2939  101.7330 H   0  0  0  0  0  0  0  0  0  0  0  0  # atno 11130 bound_to 11118
  126.4017  146.5873   96.3583 H   0  0  0  0  0  0  0  0  0  0  0  0  # atno 11138 bound_to 11129
  146.0444  143.9744  136.1535 H   0  0  0  0  0  0  0  0  0  0  0  0  # atno 11928 bound_to 11921
  134.6355  126.4178  123.4597 H   0  0  0  0  0  0  0  0  0  0  0  0  # atno 12976 bound_to 12967
  122.7412  135.8122  117.0609 LP  0  0  0  0  0  0  0  0  0  0  0  0  # atno 14322 bound_to 10518
  122.2919  136.4582  118.4918 LP  0  0  0  0  0  0  0  0  0  0  0  0  # atno 14323 bound_to 10518
  125.4824  145.5844   95.4654 LP  0  0  0  0  0  0  0  0  0  0  0  0  # atno 14344 bound_to 11129
  126.7619  145.0016   96.2959 LP  0  0  0  0  0  0  0  0  0  0  0  0  # atno 14345 bound_to 11129
  144.9573  144.7602  135.2322 LP  0  0  0  0  0  0  0  0  0  0  0  0  # atno 14348 bound_to 11921
  146.5101  145.2635  135.2763 LP  0  0  0  0  0  0  0  0  0  0  0  0  # atno 14349 bound_to 11921
  135.4458  126.2620  124.8620 LP  0  0  0  0  0  0  0  0  0  0  0  0  # atno 14354 bound_to 12967
  133.9405  125.6469  124.7127 LP  0  0  0  0  0  0  0  0  0  0  0  0  # atno 14355 bound_to 12967

> <Gold.Score>
     Fitness  S(hb_ext) S(vdw_ext)  S(hb_int)    S(int)      intcor
      0.00       0.20      13.71       0.00     -56.13      -0.76

> <Gold.Goldscore.Fitness>
0.0000

> <Gold.Goldscore.Internal.Vdw>
-56.4210

> <Gold.Goldscore.Internal.Torsion>
-0.4639

> <Gold.Goldscore.External.Vdw>
13.7120

> <Gold.Goldscore.Internal.HBond>
0.0000

> <Gold.Goldscore.External.HBond>
0.1994

> <Gold.Goldscore.Internal.Correction>
-0.7585

> <Gold.Goldscore.Internal.Vdw.Weighted>
-56.4210

> <Gold.Goldscore.Internal.Torsion.Weighted>
-0.4639

> <Gold.Goldscore.External.Vdw.Weighted>
18.8540

> <Gold.Goldscore.Internal.HBond.Weighted>
0.0000

> <Gold.Goldscore.External.HBond.Weighted>
0.1994

> <Gold.Goldscore.Internal.Correction.Weighted>
-0.7585

> <Gold.Rescore>
     Score     S(PLP)   S(hbond)     S(cho)   S(metal)  DE(clash)   DE(tors)     intcor
     12.63     -16.00       0.04       0.00       0.00       2.03       0.73       ----

> <Gold.PLP.Fitness>
12.6346

> <Gold.PLP.PLP>
-15.9964

> <Gold.PLP.part.hbond>
-1.0000

> <Gold.PLP.part.metal>
0.0000

> <Gold.PLP.part.buried>
-3.6487

> <Gold.PLP.part.nonpolar>
-12.3625

> <Gold.PLP.part.repulsive>
0.9936

> <Gold.PLP.ligand.clash>
2.0253

> <Gold.PLP.ligand.torsion>
0.7287

> <Gold.PLP.Chemscore.Hbond>
0.0403

> <Gold.PLP.Chemscore.CHOScore>
0.0000

> <Gold.PLP.Chemscore.Metal>
0.0000

> <Gold.Chemscore.Hbonds>
donor molecule, donor type, donor heavy atom, donor atom, acceptor molecule, acceptor atom, score
      P1  H 11851 11862       L1    17  0.04

> <Gold.PLP.Chemscore.Internal.Correction>
   9.000000E+99

