#       Name:                CT1002167954
#       Creating user name   hitesit
#       Creation time:       Sun Apr 16 22:56:50 2023


#       File generated by GOLD software.
#

@<TRIPOS>MOLECULE
CT1002167954|ligand_prepared|mol2|1|dock3
    29    30     1
SMALL
NO_CHARGES


@<TRIPOS>ATOM
      1 C1         146.1682 130.9703 122.0073 C.3            1 RES1               0.0000
      2 C2         145.9522 129.4949 122.4015 C.ar           1 RES1               0.0000
      3 C3         145.2210 131.7897 122.8789 C.2            1 RES1               0.0000
      4 C4         147.6450 131.2640 122.2469 C.2            1 RES1               0.0000
      5 C5         145.8556 131.2727 120.5233 C.3            1 RES1               0.0000
      6 C6         147.0388 128.6566 122.6320 C.ar           1 RES1               0.0000
      7 C7         144.6745 128.9594 122.5408 C.ar           1 RES1               0.0000
      8 N8         145.7660 132.5078 123.9022 N.am           1 RES1               0.0000
      9 O9         144.0100 131.7748 122.6956 O.2            1 RES1               0.0000
     10 N10        147.9696 132.1660 123.2261 N.am           1 RES1               0.0000
     11 O11        148.5310 130.7102 121.6079 O.2            1 RES1               0.0000
     12 C12        145.0267 130.1967 119.8396 C.3            1 RES1               0.0000
     13 C13        146.8550 127.3318 122.9917 C.ar           1 RES1               0.0000
     14 C14        144.4929 127.6342 122.9004 C.ar           1 RES1               0.0000
     15 C15        147.0983 132.7781 124.0854 C.2            1 RES1               0.0000
     16 C16        145.5821 126.8199 123.1266 C.ar           1 RES1               0.0000
     17 O17        147.4713 133.5358 124.9764 O.2            1 RES1               0.0000
     18 H18        145.3156 132.2257 120.4633 H              1 RES1               0.0000
     19 H19        146.8014 131.3884 119.9797 H              1 RES1               0.0000
     20 H20        148.0480 129.0412 122.5283 H              1 RES1               0.0000
     21 H21        143.8029 129.5812 122.3668 H              1 RES1               0.0000
     22 H22        145.1236 132.8779 124.5955 H              1 RES1               0.0000
     23 H23        148.9518 132.4031 123.3235 H              1 RES1               0.0000
     24 H24        144.8361 130.4584 118.8009 H              1 RES1               0.0000
     25 H25        145.5451 129.2403 119.8585 H              1 RES1               0.0000
     26 H26        144.0682 130.0726 120.3393 H              1 RES1               0.0000
     27 H27        147.7155 126.6947 123.1673 H              1 RES1               0.0000
     28 H28        143.4892 127.2354 123.0047 H              1 RES1               0.0000
     29 H29        145.4383 125.7821 123.4087 H              1 RES1               0.0000
@<TRIPOS>BOND
    1    1    2 1     
    2    1    3 1     
    3    1    4 1     
    4    1    5 1     
    5    2    6 ar    
    6    2    7 ar    
    7    3    8 1     
    8    3    9 2     
    9    4   10 1     
   10    4   11 2     
   11    5   12 1     
   12    5   18 1     
   13    5   19 1     
   14    6   13 ar    
   15    6   20 1     
   16    7   14 ar    
   17    7   21 1     
   18    8   15 1     
   19    8   22 1     
   20   10   15 1     
   21   10   23 1     
   22   12   24 1     
   23   12   25 1     
   24   12   26 1     
   25   13   16 ar    
   26   13   27 1     
   27   14   16 ar    
   28   14   28 1     
   29   15   17 2     
   30   16   29 1     
@<TRIPOS>SUBSTRUCTURE
      1 RES1           1
@<TRIPOS>SET
DONOR_HYDROGENS      STATIC     ATOMS    <user>   **** ""
2 22 23
ATOM$RED        STATIC     ATOMS    COLORGROUP SYSTEM
2 22 23
@<TRIPOS>COMMENT
> <Gold.Version>
2022.3.0

> <Gold.Id.Protein>
unknown|7rmi_cavity_clean|pdb

> <Gold.Protein.RotatedTorsions>
[ 10523 10518 10517 10514 ] final   54.00 input   59.99 | X-H torsion
[ 10439 10432 10433 10434 ] final -136.02 input  118.28 | X-H torsion
[ 10311 10303 10304 10305 ] final  -77.13 input  114.60 | X-H torsion
[ 11130 11118 11119 11120 ] final  -48.39 input  109.13 | X-H torsion
[ 11138 11129 11128 11126 ] final  113.88 input   60.00 | X-H torsion
[ 11928 11921 11919 11916 ] final  135.59 input   60.00 | X-H torsion
[ 12976 12967 12966 12964 ] final  -95.04 input   60.00 | X-H torsion

> <Gold.Protein.ActiveResidues>
 ASN392  LEU393  ILE32   VAL41   SER46   TYR92   HIS95   TRP98   ALA133  ILE135 
 HIS136  LEU138  ARG141  THR145  TYR216  VAL219  LEU223  GLN239  VAL252  VAL254 
 CYS255  PHE257  ALA258  TRP261  LEU262  ILE266  MET299  PRO302  ILE303  CYS306 
 CYS307 

> <Gold.Protein.RotatedAtoms>
  111.3101  135.3285   98.9340 H   0  0  0  0  0  0  0  0  0  0  0  0  # atno 10311 bound_to 10303
  112.5514  136.4574  112.1588 H   0  0  0  0  0  0  0  0  0  0  0  0  # atno 10439 bound_to 10432
  122.5050  135.8104  118.1344 H   0  0  0  0  0  0  0  0  0  0  0  0  # atno 10523 bound_to 10518
  119.4875  144.2732  101.7319 H   0  0  0  0  0  0  0  0  0  0  0  0  # atno 11130 bound_to 11118
  126.8687  146.0923   96.6030 H   0  0  0  0  0  0  0  0  0  0  0  0  # atno 11138 bound_to 11129
  146.4355  144.1883  136.0963 H   0  0  0  0  0  0  0  0  0  0  0  0  # atno 11928 bound_to 11921
  133.9635  125.6452  124.7370 H   0  0  0  0  0  0  0  0  0  0  0  0  # atno 12976 bound_to 12967
  122.2186  137.3973  117.9173 LP  0  0  0  0  0  0  0  0  0  0  0  0  # atno 14322 bound_to 10518
  122.6898  136.4699  116.6585 LP  0  0  0  0  0  0  0  0  0  0  0  0  # atno 14323 bound_to 10518
  125.5539  146.2818   95.6629 LP  0  0  0  0  0  0  0  0  0  0  0  0  # atno 14344 bound_to 11129
  126.2199  144.8028   95.8518 LP  0  0  0  0  0  0  0  0  0  0  0  0  # atno 14345 bound_to 11129
  144.9337  144.4014  135.5070 LP  0  0  0  0  0  0  0  0  0  0  0  0  # atno 14348 bound_to 11921
  146.1398  145.4070  135.0591 LP  0  0  0  0  0  0  0  0  0  0  0  0  # atno 14349 bound_to 11921
  134.6040  126.4098  123.4516 LP  0  0  0  0  0  0  0  0  0  0  0  0  # atno 14354 bound_to 12967
  135.4593  126.2776  124.8363 LP  0  0  0  0  0  0  0  0  0  0  0  0  # atno 14355 bound_to 12967

> <Gold.Score>
     Fitness  S(hb_ext) S(vdw_ext)  S(hb_int)    S(int)      intcor
      5.03       0.00      19.69       0.00     -22.05      -0.76

> <Gold.Goldscore.Fitness>
5.0295

> <Gold.Goldscore.Internal.Vdw>
-20.3150

> <Gold.Goldscore.Internal.Torsion>
-2.4938

> <Gold.Goldscore.External.Vdw>
19.6944

> <Gold.Goldscore.Internal.HBond>
0.0000

> <Gold.Goldscore.External.HBond>
0.0000

> <Gold.Goldscore.Internal.Correction>
-0.7585

> <Gold.Goldscore.Internal.Vdw.Weighted>
-20.3150

> <Gold.Goldscore.Internal.Torsion.Weighted>
-2.4938

> <Gold.Goldscore.External.Vdw.Weighted>
27.0798

> <Gold.Goldscore.Internal.HBond.Weighted>
0.0000

> <Gold.Goldscore.External.HBond.Weighted>
0.0000

> <Gold.Goldscore.Internal.Correction.Weighted>
-0.7585

> <Gold.Rescore>
     Score     S(PLP)   S(hbond)     S(cho)   S(metal)  DE(clash)   DE(tors)     intcor
     19.82     -24.93       0.00       0.00       0.00       2.38       1.36       ----

> <Gold.PLP.Fitness>
19.8238

> <Gold.PLP.PLP>
-24.9289

> <Gold.PLP.part.hbond>
0.0000

> <Gold.PLP.part.metal>
0.0000

> <Gold.PLP.part.buried>
-2.6612

> <Gold.PLP.part.nonpolar>
-22.5063

> <Gold.PLP.part.repulsive>
0.0579

> <Gold.PLP.ligand.clash>
2.3751

> <Gold.PLP.ligand.torsion>
1.3650

> <Gold.PLP.Chemscore.Hbond>
0.0000

> <Gold.PLP.Chemscore.CHOScore>
0.0000

> <Gold.PLP.Chemscore.Metal>
0.0000

> <Gold.PLP.Chemscore.Internal.Correction>
   9.000000E+99

