#       Name:                CT1002167954
#       Creating user name   hitesit
#       Creation time:       Sun Apr 16 22:57:00 2023


#       File generated by GOLD software.
#

@<TRIPOS>MOLECULE
CT1002167954|ligand_prepared|mol2|1|dock9
    29    30     1
SMALL
NO_CHARGES


@<TRIPOS>ATOM
      1 C1         142.6959 129.0501 142.5528 C.3            1 RES1               0.0000
      2 C2         142.6539 130.3754 143.3406 C.ar           1 RES1               0.0000
      3 C3         141.3474 128.9269 141.8495 C.2            1 RES1               0.0000
      4 C4         143.8850 129.1551 141.6044 C.2            1 RES1               0.0000
      5 C5         142.9023 127.8014 143.4414 C.3            1 RES1               0.0000
      6 C6         143.6740 130.7049 144.2280 C.ar           1 RES1               0.0000
      7 C7         141.6048 131.2782 143.1888 C.ar           1 RES1               0.0000
      8 N8         141.3150 129.1423 140.5032 N.am           1 RES1               0.0000
      9 O9         140.3215 128.6834 142.4727 O.2            1 RES1               0.0000
     10 N10        143.6319 129.1817 140.2579 N.am           1 RES1               0.0000
     11 O11        145.0377 129.2318 142.0114 O.2            1 RES1               0.0000
     12 C12        141.8924 127.6793 144.5716 C.3            1 RES1               0.0000
     13 C13        143.6479 131.8951 144.9359 C.ar           1 RES1               0.0000
     14 C14        141.5806 132.4678 143.8978 C.ar           1 RES1               0.0000
     15 C15        142.3989 129.2110 139.6653 C.2            1 RES1               0.0000
     16 C16        142.6016 132.7775 144.7710 C.ar           1 RES1               0.0000
     17 O17        142.2518 129.2900 138.4490 O.2            1 RES1               0.0000
     18 H18        142.8377 126.9054 142.8118 H              1 RES1               0.0000
     19 H19        143.9108 127.8369 143.8715 H              1 RES1               0.0000
     20 H20        144.5044 130.0218 144.3727 H              1 RES1               0.0000
     21 H21        140.7902 131.0551 142.5082 H              1 RES1               0.0000
     22 H22        140.4002 129.2635 140.0803 H              1 RES1               0.0000
     23 H23        144.4373 129.1793 139.6401 H              1 RES1               0.0000
     24 H24        142.0823 126.7866 145.1639 H              1 RES1               0.0000
     25 H25        141.9465 128.5421 145.2322 H              1 RES1               0.0000
     26 H26        140.8797 127.6162 144.1787 H              1 RES1               0.0000
     27 H27        144.4532 132.1335 145.6228 H              1 RES1               0.0000
     28 H28        140.7548 133.1590 143.7654 H              1 RES1               0.0000
     29 H29        142.5816 133.7100 145.3253 H              1 RES1               0.0000
@<TRIPOS>BOND
    1    1    2 1     
    2    1    3 1     
    3    1    4 1     
    4    1    5 1     
    5    2    6 ar    
    6    2    7 ar    
    7    3    8 1     
    8    3    9 2     
    9    4   10 1     
   10    4   11 2     
   11    5   12 1     
   12    5   18 1     
   13    5   19 1     
   14    6   13 ar    
   15    6   20 1     
   16    7   14 ar    
   17    7   21 1     
   18    8   15 1     
   19    8   22 1     
   20   10   15 1     
   21   10   23 1     
   22   12   24 1     
   23   12   25 1     
   24   12   26 1     
   25   13   16 ar    
   26   13   27 1     
   27   14   16 ar    
   28   14   28 1     
   29   15   17 2     
   30   16   29 1     
@<TRIPOS>SUBSTRUCTURE
      1 RES1           1
@<TRIPOS>SET
DONOR_HYDROGENS      STATIC     ATOMS    <user>   **** ""
2 22 23
ATOM$RED        STATIC     ATOMS    COLORGROUP SYSTEM
2 22 23
@<TRIPOS>COMMENT
> <Gold.Version>
2022.3.0

> <Gold.Id.Protein>
unknown|7rmi_cavity_clean|pdb

> <Gold.Protein.RotatedTorsions>
[ 10523 10518 10517 10514 ] final -172.04 input   59.99 | X-H torsion
[ 10439 10432 10433 10434 ] final  -33.59 input  118.28 | X-H torsion
[ 10311 10303 10304 10305 ] final  116.01 input  114.60 | X-H torsion
[ 11130 11118 11119 11120 ] final  -96.18 input  109.13 | X-H torsion
[ 11138 11129 11128 11126 ] final   -4.69 input   60.00 | X-H torsion
[ 11928 11921 11919 11916 ] final  171.09 input   60.00 | X-H torsion
[ 12976 12967 12966 12964 ] final -174.85 input   60.00 | X-H torsion

> <Gold.Protein.ActiveResidues>
 ASN392  LEU393  ILE32   VAL41   SER46   TYR92   HIS95   TRP98   ALA133  ILE135 
 HIS136  LEU138  ARG141  THR145  TYR216  VAL219  LEU223  GLN239  VAL252  VAL254 
 CYS255  PHE257  ALA258  TRP261  LEU262  ILE266  MET299  PRO302  ILE303  CYS306 
 CYS307 

> <Gold.Protein.RotatedAtoms>
  110.4357  136.4773   97.9301 H   0  0  0  0  0  0  0  0  0  0  0  0  # atno 10311 bound_to 10303
  113.9236  136.5817  112.2230 H   0  0  0  0  0  0  0  0  0  0  0  0  # atno 10439 bound_to 10432
  122.6399  136.6928  116.6609 H   0  0  0  0  0  0  0  0  0  0  0  0  # atno 10523 bound_to 10518
  119.6077  144.9511  101.9124 H   0  0  0  0  0  0  0  0  0  0  0  0  # atno 11130 bound_to 11118
  125.5673  146.2960   95.6778 H   0  0  0  0  0  0  0  0  0  0  0  0  # atno 11138 bound_to 11129
  146.7260  144.6115  135.8464 H   0  0  0  0  0  0  0  0  0  0  0  0  # atno 11928 bound_to 11921
  134.0663  126.1009  123.6308 H   0  0  0  0  0  0  0  0  0  0  0  0  # atno 12976 bound_to 12967
  122.5718  135.6984  117.9469 LP  0  0  0  0  0  0  0  0  0  0  0  0  # atno 14322 bound_to 10518
  122.2006  137.2799  118.1134 LP  0  0  0  0  0  0  0  0  0  0  0  0  # atno 14323 bound_to 10518
  126.2010  144.8057   95.8384 LP  0  0  0  0  0  0  0  0  0  0  0  0  # atno 14344 bound_to 11129
  126.8837  146.0737   96.6083 LP  0  0  0  0  0  0  0  0  0  0  0  0  # atno 14345 bound_to 11129
  145.2021  144.0410  135.8657 LP  0  0  0  0  0  0  0  0  0  0  0  0  # atno 14348 bound_to 11921
  145.5788  145.3411  134.9522 LP  0  0  0  0  0  0  0  0  0  0  0  0  # atno 14349 bound_to 11921
  135.5147  126.5234  124.2395 LP  0  0  0  0  0  0  0  0  0  0  0  0  # atno 14354 bound_to 12967
  134.4451  125.7049  125.1628 LP  0  0  0  0  0  0  0  0  0  0  0  0  # atno 14355 bound_to 12967

> <Gold.Score>
     Fitness  S(hb_ext) S(vdw_ext)  S(hb_int)    S(int)      intcor
      0.00       0.38       1.83       0.00      -5.77      -0.76

> <Gold.Goldscore.Fitness>
0.0000

> <Gold.Goldscore.Internal.Vdw>
-5.9789

> <Gold.Goldscore.Internal.Torsion>
-0.5546

> <Gold.Goldscore.External.Vdw>
1.8296

> <Gold.Goldscore.Internal.HBond>
0.0000

> <Gold.Goldscore.External.HBond>
0.3771

> <Gold.Goldscore.Internal.Correction>
-0.7585

> <Gold.Goldscore.Hbonds>
donor molecule, donor type, donor heavy atom, donor atom, acceptor molecule, acceptor atom, score
      P1  H 11851 11862       L1    11  0.08

> <Gold.Goldscore.Internal.Vdw.Weighted>
-5.9789

> <Gold.Goldscore.Internal.Torsion.Weighted>
-0.5546

> <Gold.Goldscore.External.Vdw.Weighted>
2.5157

> <Gold.Goldscore.Internal.HBond.Weighted>
0.0000

> <Gold.Goldscore.External.HBond.Weighted>
0.3771

> <Gold.Goldscore.Internal.Correction.Weighted>
-0.7585

> <Gold.Rescore>
     Score     S(PLP)   S(hbond)     S(cho)   S(metal)  DE(clash)   DE(tors)     intcor
     17.73     -19.25       0.00       0.00       0.00       1.15       0.19       ----

> <Gold.PLP.Fitness>
17.7256

> <Gold.PLP.PLP>
-19.2541

> <Gold.PLP.part.hbond>
-1.0710

> <Gold.PLP.part.metal>
0.0000

> <Gold.PLP.part.buried>
-4.0929

> <Gold.PLP.part.nonpolar>
-14.9368

> <Gold.PLP.part.repulsive>
0.5388

> <Gold.PLP.ligand.clash>
1.1481

> <Gold.PLP.ligand.torsion>
0.1902

> <Gold.PLP.Chemscore.Hbond>
0.0000

> <Gold.PLP.Chemscore.CHOScore>
0.0000

> <Gold.PLP.Chemscore.Metal>
0.0000

> <Gold.PLP.Chemscore.Internal.Correction>
   9.000000E+99

