@<TRIPOS>MOLECULE
K:THR5
   297   299    20     0     1
SMALL
NO_CHARGES
****
Generated from the CSD

@<TRIPOS>ATOM
     1 N       17.7840 -15.5530  26.1260   N.3       1 THR5   0.0000
     2 CA      17.5080 -15.5660  27.6060   C.3       1 THR5   0.0000
     3 C       17.1310 -14.1900  28.1250   C.2       1 THR5   0.0000
     4 O       17.2380 -13.1790  27.4060   O.2       1 THR5   0.0000
     5 CB      18.7290 -16.0190  28.4110   C.3       1 THR5   0.0000
     6 CG2     19.0380 -17.4960  28.1360   C.3       1 THR5   0.0000
     7 OG1     19.8640 -15.2080  28.0450   O.3       1 THR5   0.0000
     8 N       16.6910 -14.1390  29.3800   N.am      2 THR6   0.0000
     9 CA      16.3790 -12.8470  29.9760   C.3       2 THR6   0.0000
    10 C       17.6790 -12.0480  30.1040   C.2       2 THR6   0.0000
    11 O       17.6840 -10.8520  29.8270   O.2       2 THR6   0.0000
    12 CB      15.6620 -12.9810  31.3340   C.3       2 THR6   0.0000
    13 CG2     15.4940 -11.6390  31.9800   C.3       2 THR6   0.0000
    14 OG1     14.3520 -13.5200  31.1500   O.3       2 THR6   0.0000
    15 N       18.7850 -12.7030  30.4630   N.am      3 TYR7   0.0000
    16 CA      20.0730 -12.0020  30.4840   C.3       3 TYR7   0.0000
    17 C       20.3740 -11.4120  29.1260   C.2       3 TYR7   0.0000
    18 O       20.6350 -10.2200  29.0380   O.2       3 TYR7   0.0000
    19 CB      21.2670 -12.8690  30.9400   C.3       3 TYR7   0.0000
    20 CG      22.6020 -12.1190  30.9750   C.ar      3 TYR7   0.0000
    21 CD1     22.8860 -11.2090  31.9970   C.ar      3 TYR7   0.0000
    22 CD2     23.5880 -12.3420  30.0130   C.ar      3 TYR7   0.0000
    23 CE1     24.1080 -10.5170  32.0630   C.ar      3 TYR7   0.0000
    24 CE2     24.8260 -11.6570  30.0610   C.ar      3 TYR7   0.0000
    25 CZ      25.0720 -10.7380  31.0920   C.ar      3 TYR7   0.0000
    26 OH      26.2690 -10.0400  31.1640   O.3       3 TYR7   0.0000
    27 N       20.3430 -12.2440  28.0820   N.am      4 ALA8   0.0000
    28 CA      20.6880 -11.8000  26.7230   C.3       4 ALA8   0.0000
    29 C       19.8040 -10.6330  26.2770   C.2       4 ALA8   0.0000
    30 O       20.2670  -9.7140  25.6040   O.2       4 ALA8   0.0000
    31 CB      20.6000 -12.9640  25.7170   C.3       4 ALA8   0.0000
    32 N       18.5410 -10.6540  26.6850   N.am      5 ASP9   0.0000
    33 CA      17.6590  -9.5250  26.4400   C.3       5 ASP9   0.0000
    34 C       18.1020  -8.3360  27.2500   C.2       5 ASP9   0.0000
    35 O       18.0100  -7.1970  26.7790   O.2       5 ASP9   0.0000
    36 CB      16.2190  -9.8860  26.7670   C.3       5 ASP9   0.0000
    37 CG      15.7050 -10.9730  25.8920   C.ar      5 ASP9   0.0000
    38 OD1     16.2040 -11.1240  24.7640   O.co2     5 ASP9   0.0000
    39 OD2     14.8340 -11.7200  26.3230   O.co2     5 ASP9   0.0000
    40 N       18.6280  -8.5720  28.4490   N.am      6 PHE10   0.0000
    41 CA      19.1320  -7.4190  29.1810   C.3       6 PHE10   0.0000
    42 C       20.2340  -6.6950  28.3900   C.2       6 PHE10   0.0000
    43 O       20.2670  -5.4480  28.3310   O.2       6 PHE10   0.0000
    44 CB      19.5990  -7.7470  30.6080   C.3       6 PHE10   0.0000
    45 CG      20.2070  -6.5700  31.3080   C.ar      6 PHE10   0.0000
    46 CD1     19.5060  -5.3700  31.4130   C.ar      6 PHE10   0.0000
    47 CD2     21.4750  -6.6310  31.8170   C.ar      6 PHE10   0.0000
    48 CE1     20.0750  -4.2520  32.0390   C.ar      6 PHE10   0.0000
    49 CE2     22.0400  -5.5140  32.4270   C.ar      6 PHE10   0.0000
    50 CZ      21.3440  -4.3420  32.5320   C.ar      6 PHE10   0.0000
    51 N       21.1320  -7.4690  27.7830   N.am      7 ILE11   0.0000
    52 CA      22.3190  -6.8830  27.1500   C.3       7 ILE11   0.0000
    53 C       21.9030  -6.0830  25.9180   C.2       7 ILE11   0.0000
    54 O       22.3750  -4.9550  25.7260   O.2       7 ILE11   0.0000
    55 CB      23.3470  -7.9640  26.7990   C.3       7 ILE11   0.0000
    56 CG1     23.9080  -8.6060  28.0800   C.3       7 ILE11   0.0000
    57 CG2     24.4630  -7.3850  25.9850   C.3       7 ILE11   0.0000
    58 CD1     24.8260  -7.7010  28.9150   C.3       7 ILE11   0.0000
    59 N       20.9840  -6.6820  25.1490   N.am      8 ALA12   0.0000
    60 CA      20.4250  -6.1480  23.8990   C.3       8 ALA12   0.0000
    61 C       19.6980  -4.8260  24.1000   C.2       8 ALA12   0.0000
    62 O       19.6260  -4.0110  23.1800   O.2       8 ALA12   0.0000
    63 CB      19.4790  -7.1850  23.2360   C.3       8 ALA12   0.0000
    64 N       19.1540  -4.6420  25.3030   N.am      9 SER13   0.0000
    65 CA      18.5440  -3.3840  25.7100   C.3       9 SER13   0.0000
    66 C       19.6750  -2.3840  25.9200   C.2       9 SER13   0.0000
    67 O       20.8240  -2.7590  26.0750   O.2       9 SER13   0.0000
    68 CB      17.7510  -3.6050  27.0070   C.3       9 SER13   0.0000
    69 OG      18.6110  -3.6710  28.1500   O.3       9 SER13   0.0000
    70 N       19.4100  -1.1040  25.9200   N.am     10 GLY14   0.0000
    71 CA      20.5650  -0.2070  26.0790   C.3      10 GLY14   0.0000
    72 C       21.5220  -0.2920  27.3100   C.2      10 GLY14   0.0000
    73 O       22.7600  -0.1160  27.1900   O.2      10 GLY14   0.0000
    74 N       20.9590  -0.5270  28.4920   N.am     11 ARG15   0.0000
    75 CA      21.4940   0.1130  29.7010   C.3      11 ARG15   0.0000
    76 C       22.3620  -0.7820  30.5740   C.2      11 ARG15   0.0000
    77 O       21.9860  -1.1310  31.7040   O.2      11 ARG15   0.0000
    78 CB      20.3620   0.7180  30.5220   C.3      11 ARG15   0.0000
    79 CG      19.0520   0.9250  29.7680   C.3      11 ARG15   0.0000
    80 CD      18.0080   1.6380  30.6620   C.3      11 ARG15   0.0000
    81 NE      18.0220   3.0330  30.3050   N.2      11 ARG15   0.0000
    82 CZ      18.3000   4.0430  31.1190   C.ar     11 ARG15   0.0000
    83 NH1     18.5130   3.8650  32.4310   N.2      11 ARG15   0.0000
    84 NH2     18.3240   5.2630  30.6050   N.2      11 ARG15   0.0000
    85 N       23.5270  -1.1400  30.0310   N.am     12 THR16   0.0000
    86 CA      24.3860  -2.1590  30.6130   C.3      12 THR16   0.0000
    87 C       25.5400  -1.5320  31.3480   C.2      12 THR16   0.0000
    88 O       26.1850  -2.2120  32.1490   O.2      12 THR16   0.0000
    89 CB      24.9220  -3.1090  29.5290   C.3      12 THR16   0.0000
    90 CG2     23.7800  -3.7330  28.7870   C.3      12 THR16   0.0000
    91 OG1     25.6840  -2.3590  28.5700   O.3      12 THR16   0.0000
    92 N       25.7970  -0.2550  31.0770   N.am     13 GLY17   0.0000
    93 CA      26.8470   0.4850  31.7450   C.3      13 GLY17   0.0000
    94 C       26.3690   1.3250  32.9310   C.2      13 GLY17   0.0000
    95 O       25.2080   1.2580  33.3340   O.2      13 GLY17   0.0000
    96 N       27.2890   2.0970  33.5100   N.am     14 ARG18   0.0000
    97 CA      26.9580   3.0570  34.5380   C.3      14 ARG18   0.0000
    98 C       25.7790   3.8730  34.0780   C.2      14 ARG18   0.0000
    99 O       25.7100   4.3330  32.9260   O.2      14 ARG18   0.0000
   100 CB      28.1500   3.9340  34.9060   C.3      14 ARG18   0.0000
   101 CG      29.0790   3.2750  35.9160   C.3      14 ARG18   0.0000
   102 CD      30.3600   4.0700  36.1590   C.3      14 ARG18   0.0000
   103 NE      31.5630   3.2360  35.9880   N.2      14 ARG18   0.0000
   104 CZ      32.2120   3.0200  34.8180   C.ar     14 ARG18   0.0000
   105 NH1     31.7890   3.5730  33.6630   N.2      14 ARG18   0.0000
   106 NH2     33.2950   2.2380  34.7990   N.2      14 ARG18   0.0000
   107 N       24.8180   3.9910  34.9840   N.am     15 ARG19   0.0000
   108 CA      23.5570   4.5860  34.6540   C.3      15 ARG19   0.0000
   109 C       23.5760   5.8890  35.3560   C.2      15 ARG19   0.0000
   110 O       24.1280   6.0130  36.4410   O.2      15 ARG19   0.0000
   111 CB      22.4090   3.7070  35.1010   C.3      15 ARG19   0.0000
   112 CG      22.5120   2.3080  34.5180   C.3      15 ARG19   0.0000
   113 CD      21.6250   1.2440  35.1920   C.3      15 ARG19   0.0000
   114 NE      22.1930   0.7740  36.4430   N.2      15 ARG19   0.0000
   115 CZ      22.0060  -0.4320  36.9690   C.ar     15 ARG19   0.0000
   116 NH1     21.2620  -1.3370  36.3550   N.2      15 ARG19   0.0000
   117 NH2     22.5870  -0.7340  38.1290   N.2      15 ARG19   0.0000
   118 N       23.0170   6.8840  34.6980   N.am     16 ASN20   0.0000
   119 CA      22.8820   8.1790  35.3160   C.3      16 ASN20   0.0000
   120 C       21.6830   8.2620  36.2240   C.2      16 ASN20   0.0000
   121 O       20.7150   7.5310  36.0860   O.2      16 ASN20   0.0000
   122 CB      22.8310   9.2450  34.2350   C.3      16 ASN20   0.0000
   123 CG      24.1350   9.3260  33.4870   C.2      16 ASN20   0.0000
   124 ND2     25.2390   9.2090  34.2330   N.am     16 ASN20   0.0000
   125 OD1     24.1620   9.4300  32.2590   O.2      16 ASN20   0.0000
   126 N       21.7830   9.1510  37.1850   N.am     17 ALA21   0.0000
   127 CA      20.6800   9.4080  38.0770   C.3      17 ALA21   0.0000
   128 C       20.0380  10.6070  37.4680   C.2      17 ALA21   0.0000
   129 O       20.7140  11.4080  36.8610   O.2      17 ALA21   0.0000
   130 CB      21.1810   9.7040  39.4650   C.3      17 ALA21   0.0000
   131 N       18.7260  10.7130  37.5570   N.am     18 ILE22   0.0000
   132 CA      18.0790  11.9100  37.0910   C.3      18 ILE22   0.0000
   133 C       18.3460  12.9550  38.1530   C.2      18 ILE22   0.0000
   134 O       18.1630  12.6930  39.3340   O.2      18 ILE22   0.0000
   135 CB      16.5950  11.6770  36.7310   C.3      18 ILE22   0.0000
   136 CG1     15.7920  11.1060  37.8620   C.3      18 ILE22   0.0000
   137 CG2     16.4750  10.6130  35.6300   C.3      18 ILE22   0.0000
   138 CD1     14.7960   9.9910  37.3570   C.3      18 ILE22   0.0000
   139 N       18.9560  14.0640  37.7190   N.am     19 HIS23   0.0000
   140 CA      19.1430  15.2630  38.5320   C.3      19 HIS23   0.0000
   141 C       18.5680  16.4270  37.6950   C.2      19 HIS23   0.0000
   142 O       19.2680  16.9070  36.7720   O.2      19 HIS23   0.0000
   143 CB      20.6310  15.4790  39.0120   C.3      19 HIS23   0.0000
   144 CG      21.7200  14.9610  38.0880   C.2      19 HIS23   0.0000
   145 CD2     22.9170  15.5070  37.7370   C.2      19 HIS23   0.0000
   146 ND1     21.6720  13.7420  37.4490   N.pl3    19 HIS23   0.0000
   147 CE1     22.7690  13.5660  36.7270   C.2      19 HIS23   0.0000
   148 NE2     23.5450  14.6220  36.8930   N.2      19 HIS23   0.0000
   149 N       17.3170  16.8890  37.9270   N.am     20 ASP24   0.0000
   150 CA      16.3950  16.5910  39.0520   C.3      20 ASP24   0.0000
   151 C       14.9670  16.4140  38.5770   C.2      20 ASP24   0.0000
   152 O       14.0710  16.0610  39.3440   O.2      20 ASP24   0.0000
   153 CB      16.3530  17.7810  40.0500   C.3      20 ASP24   0.0000
   154 CG      15.3070  18.9130  39.6440   C.ar     20 ASP24   0.0000
   155 OD1     14.2430  19.0050  40.3170   O.co2    20 ASP24   0.0000
   156 OD2     15.5240  19.7200  38.6840   O.co2    20 ASP24   0.0000
   157 OXT     14.6260  16.7260  37.4460   O.3      20 ASP24   0.0000
   158 H1      18.5520 -14.9188  25.9306   H         1 THR5   0.0000
   159 H2      18.0315 -16.4885  25.8198   H         1 THR5   0.0000
   160 H3      16.6852 -16.2517  27.8026   H         1 THR5   0.0000
   161 H4      18.5248 -15.8888  29.4727   H         1 THR5   0.0000
   162 H5      19.2439 -17.6324  27.0754   H         1 THR5   0.0000
   163 H6      19.9081 -17.7990  28.7166   H         1 THR5   0.0000
   164 H7      18.1814 -18.1052  28.4208   H         1 THR5   0.0000
   165 H8      19.6679 -14.2551  28.2440   H         1 THR5   0.0000
   166 H9      16.5739 -14.9924  29.9168   H         2 THR6   0.0000
   167 H10     15.7183 -12.3114  29.2959   H         2 THR6   0.0000
   168 H11     16.2376 -13.6332  31.9891   H         2 THR6   0.0000
   169 H12     14.9013 -10.9956  31.3314   H         2 THR6   0.0000
   170 H13     14.9862 -11.7574  32.9361   H         2 THR6   0.0000
   171 H14     16.4724 -11.1890  32.1418   H         2 THR6   0.0000
   172 H15     14.4192 -14.4165  30.7284   H         2 THR6   0.0000
   173 H16     18.7349 -13.6834  30.7207   H         3 TYR7   0.0000
   174 H17     19.9830 -11.1749  31.1866   H         3 TYR7   0.0000
   175 H18     21.3633 -13.7083  30.2528   H         3 TYR7   0.0000
   176 H19     21.0571 -13.2420  31.9414   H         3 TYR7   0.0000
   177 H20     22.1368 -11.0302  32.7668   H         3 TYR7   0.0000
   178 H21     23.4019 -13.0553  29.2115   H         3 TYR7   0.0000
   179 H22     24.2959  -9.8121  32.8716   H         3 TYR7   0.0000
   180 H23     25.5838 -11.8426  29.3012   H         3 TYR7   0.0000
   181 H24     26.7244 -10.2514  32.0207   H         3 TYR7   0.0000
   182 H25     20.0734 -13.2112  28.2307   H         4 ALA8   0.0000
   183 H26     21.7191 -11.4501  26.7384   H         4 ALA8   0.0000
   184 H27     19.5850 -13.3585  25.7062   H         4 ALA8   0.0000
   185 H28     20.8604 -12.6047  24.7225   H         4 ALA8   0.0000
   186 H29     21.2924 -13.7513  26.0114   H         4 ALA8   0.0000
   187 H30     18.1865 -11.4694  27.1746   H         5 ASP9   0.0000
   188 H31     17.7179  -9.2643  25.3843   H         5 ASP9   0.0000
   189 H32     17.1979  -4.5397  26.9273   H         9 SER13   0.0000
   190 H33     17.0525  -2.7799  27.1383   H         9 SER13   0.0000
   191 H34     15.5960  -9.0028  26.6334   H         5 ASP9   0.0000
   192 H35     16.1656 -10.2144  27.8039   H         5 ASP9   0.0000
   193 H36     18.6756  -9.5098  28.8344   H         6 PHE10   0.0000
   194 H37     18.3024  -6.7199  29.2752   H         6 PHE10   0.0000
   195 H38     20.3414  -8.5421  30.5564   H         6 PHE10   0.0000
   196 H39     18.7406  -8.0887  31.1845   H         6 PHE10   0.0000
   197 H40     18.4999  -5.2996  31.0021   H         6 PHE10   0.0000
   198 H41     22.0447  -7.5563  31.7450   H         6 PHE10   0.0000
   199 H42     19.5118  -3.3244  32.1305   H         6 PHE10   0.0000
   200 H43     23.0513  -5.5749  32.8264   H         6 PHE10   0.0000
   201 H44     21.8035  -3.4783  33.0102   H         6 PHE10   0.0000
   202 H45     20.9939  -8.4742  27.7580   H         7 ILE11   0.0000
   203 H46     22.7779  -6.1969  27.8604   H         7 ILE11   0.0000
   204 H47     22.8525  -8.7360  26.2113   H         7 ILE11   0.0000
   205 H48     24.4759  -9.4899  27.7934   H         7 ILE11   0.0000
   206 H49     23.0668  -8.9019  28.7052   H         7 ILE11   0.0000
   207 H50     24.9575  -6.5991  26.5540   H         7 ILE11   0.0000
   208 H51     25.1818  -8.1674  25.7461   H         7 ILE11   0.0000
   209 H52     24.0611  -6.9675  25.0630   H         7 ILE11   0.0000
   210 H53     24.2756  -6.8146  29.2271   H         7 ILE11   0.0000
   211 H54     25.1686  -8.2440  29.7946   H         7 ILE11   0.0000
   212 H55     25.6847  -7.4027  28.3153   H         7 ILE11   0.0000
   213 H56     20.6428  -7.5867  25.4576   H         8 ALA12   0.0000
   214 H57     21.2534  -5.9701  23.2148   H         8 ALA12   0.0000
   215 H58     18.6615  -7.4178  23.9167   H         8 ALA12   0.0000
   216 H59     19.0761  -6.7707  22.3130   H         8 ALA12   0.0000
   217 H60     20.0359  -8.0940  23.0132   H         8 ALA12   0.0000
   218 H61     19.1655  -5.4122  25.9640   H         9 SER13   0.0000
   219 H62     17.8772  -3.0272  24.9265   H         9 SER13   0.0000
   220 H63     21.8259  10.5811  39.4388   H        17 ALA21   0.0000
   221 H64     20.3348   9.8952  40.1233   H        17 ALA21   0.0000
   222 H65     21.7448   8.8499  39.8373   H        17 ALA21   0.0000
   223 H66     18.1774   9.9556  37.9513   H        18 ILE22   0.0000
   224 H67     18.5906  12.2270  36.1834   H        18 ILE22   0.0000
   225 H68     19.1158  -2.8200  28.2340   H         9 SER13   0.0000
   226 H69     18.4643  -0.7503  25.8165   H        10 GLY14   0.0000
   227 H70     20.1657   0.8061  26.0741   H        10 GLY14   0.0000
   228 H71     21.1885  -0.3557  25.1987   H        10 GLY14   0.0000
   229 H72     20.1595  -1.1487  28.5585   H        11 ARG15   0.0000
   230 H73     22.1223   0.9389  29.3707   H        11 ARG15   0.0000
   231 H74     20.6945   1.6867  30.8920   H        11 ARG15   0.0000
   232 H75     20.1652   0.0559  31.3639   H        11 ARG15   0.0000
   233 H76     18.6587  -0.0438  29.4635   H        11 ARG15   0.0000
   234 H77     19.2409   1.5339  28.8851   H        11 ARG15   0.0000
   235 H78     18.2725   1.5190  31.7117   H        11 ARG15   0.0000
   236 H79     17.0185   1.2182  30.4871   H        11 ARG15   0.0000
   237 H80     18.7234   4.6617  33.0237   H        11 ARG15   0.0000
   238 H81     18.5331   6.0596  31.1982   H        11 ARG15   0.0000
   239 H82     23.8262  -0.6820  29.1760   H        12 THR16   0.0000
   240 H83     23.7997  -2.7407  31.3228   H        12 THR16   0.0000
   241 H84     25.5430  -3.8813  29.9805   H        12 THR16   0.0000
   242 H85     23.1828  -2.9529  28.3172   H        12 THR16   0.0000
   243 H86     24.1676  -4.4038  28.0217   H        12 THR16   0.0000
   244 H87     23.1594  -4.2959  29.4827   H        12 THR16   0.0000
   245 H88     26.4455  -1.9146  29.0269   H        12 THR16   0.0000
   246 H89     25.2360   0.2181  30.3758   H        13 GLY17   0.0000
   247 H90     27.3090   1.1522  31.0188   H        13 GLY17   0.0000
   248 H91     27.5879  -0.2261  32.1074   H        13 GLY17   0.0000
   249 H92     28.2570   2.0071  33.2181   H        14 ARG18   0.0000
   250 H93     26.6585   2.5061  35.4284   H        14 ARG18   0.0000
   251 H94     27.7785   4.8652  35.3312   H        14 ARG18   0.0000
   252 H95     28.7164   4.1486  34.0010   H        14 ARG18   0.0000
   253 H96     29.3491   2.2872  35.5455   H        14 ARG18   0.0000
   254 H97     28.5482   3.1754  36.8617   H        14 ARG18   0.0000
   255 H98     30.3443   4.4617  37.1750   H        14 ARG18   0.0000
   256 H99     30.4011   4.8970  35.4517   H        14 ARG18   0.0000
   257 H100    32.2935   3.3950  32.8004   H        14 ARG18   0.0000
   258 H101    33.7859   2.0720  33.9262   H        14 ARG18   0.0000
   259 H102    24.9785   3.6539  35.9278   H        15 ARG19   0.0000
   260 H103    23.4979   4.7489  33.5789   H        15 ARG19   0.0000
   261 H104    21.4724   4.1570  34.7751   H        15 ARG19   0.0000
   262 H105    22.4198   3.6381  36.1878   H        15 ARG19   0.0000
   263 H106    23.5483   1.9842  34.6028   H        15 ARG19   0.0000
   264 H107    22.2331   2.3608  33.4666   H        15 ARG19   0.0000
   265 H108    21.5161   0.3975  34.5156   H        15 ARG19   0.0000
   266 H109    20.6462   1.6776  35.3915   H        15 ARG19   0.0000
   267 H110    21.1302  -2.2531  36.7717   H        15 ARG19   0.0000
   268 H111    22.4516  -1.6518  38.5406   H        15 ARG19   0.0000
   269 H112    22.6800   6.7380  33.7518   H        16 ASN20   0.0000
   270 H113    23.7713   8.3563  35.9190   H        16 ASN20   0.0000
   271 H114    22.6262  10.2096  34.6970   H        16 ASN20   0.0000
   272 H115    22.0340   9.0018  33.5339   H        16 ASN20   0.0000
   273 H116    26.1540   9.2540  33.7959   H        16 ASN20   0.0000
   274 H117    25.1618   9.0752  35.2362   H        16 ASN20   0.0000
   275 H118    22.6503   9.6652  37.3017   H        17 ALA21   0.0000
   276 H119    19.9898   8.5657  38.0883   H        17 ALA21   0.0000
   277 H120    16.1460  12.6099  36.3935   H        18 ILE22   0.0000
   278 H121    15.2202  11.9062  38.3296   H        18 ILE22   0.0000
   279 H122    16.4708  10.6696  38.5933   H        18 ILE22   0.0000
   280 H123    16.9070   9.6770  35.9811   H        18 ILE22   0.0000
   281 H124    15.4247  10.4593  35.3867   H        18 ILE22   0.0000
   282 H125    17.0081  10.9482  34.7416   H        18 ILE22   0.0000
   283 H126    15.3602   9.1838  36.8923   H        18 ILE22   0.0000
   284 H127    14.2309   9.5995  38.2016   H        18 ILE22   0.0000
   285 H128    14.1096  10.4203  36.6286   H        18 ILE22   0.0000
   286 H129    19.3100  14.0726  36.7678   H        19 HIS23   0.0000
   287 H130    18.5223  15.1584  39.4206   H        19 HIS23   0.0000
   288 H131    20.7454  14.9785  39.9724   H        19 HIS23   0.0000
   289 H132    20.7860  16.5493  39.1397   H        19 HIS23   0.0000
   290 H133    23.3061  16.4697  38.0652   H        19 HIS23   0.0000
   291 H134    20.9089  13.0766  37.5206   H        19 HIS23   0.0000
   292 H135    22.9922  12.7007  36.1046   H        19 HIS23   0.0000
   293 H136    16.9567  17.5331  37.2302   H        20 ASP24   0.0000
   294 H137    16.7245  15.6905  39.5681   H        20 ASP24   0.0000
   295 H138    17.3449  18.2282  40.0955   H        20 ASP24   0.0000
   296 H139    16.0823  17.3976  41.0327   H        20 ASP24   0.0000
   297 H140    15.1501  16.2013  36.7857   H        20 ASP24   0.0000
@<TRIPOS>BOND
     1     1     2    1
     2     2     3    1
     3     3     4    2
     4     2     5    1
     5     5     6    1
     6     5     7    1
     7     3     8   am
     8     8     9    1
     9     9    10    1
    10    10    11    2
    11     9    12    1
    12    12    13    1
    13    12    14    1
    14    10    15   am
    15    15    16    1
    16    16    17    1
    17    17    18    2
    18    16    19    1
    19    19    20    1
    20    20    21   ar
    21    20    22   ar
    22    21    23   ar
    23    22    24   ar
    24    23    25   ar
    25    24    25   ar
    26    25    26    1
    27    17    27   am
    28    27    28    1
    29    28    29    1
    30    29    30    2
    31    28    31    1
    32    29    32   am
    33    32    33    1
    34    33    34    1
    35    34    35    2
    36    33    36    1
    37    36    37    1
    38    37    38   ar
    39    37    39   ar
    40    34    40   am
    41    40    41    1
    42    41    42    1
    43    42    43    2
    44    41    44    1
    45    44    45    1
    46    45    46   ar
    47    45    47   ar
    48    46    48   ar
    49    47    49   ar
    50    48    50   ar
    51    49    50   ar
    52    42    51   am
    53    51    52    1
    54    52    53    1
    55    53    54    2
    56    52    55    1
    57    55    56    1
    58    55    57    1
    59    56    58    1
    60    53    59   am
    61    59    60    1
    62    60    61    1
    63    61    62    2
    64    60    63    1
    65    61    64   am
    66    64    65    1
    67    65    66    1
    68    66    67    2
    69    65    68    1
    70    68    69    1
    71    66    70   am
    72    70    71    1
    73    71    72    1
    74    72    73    2
    75    72    74   am
    76    74    75    1
    77    75    76    1
    78    76    77    2
    79    75    78    1
    80    78    79    1
    81    79    80    1
    82    80    81    1
    83    81    82   ar
    84    82    83   ar
    85    82    84   ar
    86    76    85   am
    87    85    86    1
    88    86    87    1
    89    87    88    2
    90    86    89    1
    91    89    90    1
    92    89    91    1
    93    87    92   am
    94    92    93    1
    95    93    94    1
    96    94    95    2
    97    94    96   am
    98    96    97    1
    99    97    98    1
   100    98    99    2
   101    97   100    1
   102   100   101    1
   103   101   102    1
   104   102   103    1
   105   103   104   ar
   106   104   105   ar
   107   104   106   ar
   108    98   107   am
   109   107   108    1
   110   108   109    1
   111   109   110    2
   112   108   111    1
   113   111   112    1
   114   112   113    1
   115   113   114    1
   116   114   115   ar
   117   115   116   ar
   118   115   117   ar
   119   109   118   am
   120   118   119    1
   121   119   120    1
   122   120   121    2
   123   119   122    1
   124   122   123    1
   125   123   124   am
   126   123   125    2
   127   120   126   am
   128   126   127    1
   129   127   128    1
   130   128   129    2
   131   127   130    1
   132   128   131   am
   133   131   132    1
   134   132   133    1
   135   133   134    2
   136   132   135    1
   137   135   136    1
   138   135   137    1
   139   136   138    1
   140   133   139   am
   141   139   140    1
   142   140   141    1
   143   141   142    2
   144   140   143    1
   145   143   144    1
   146   144   145    2
   147   144   146    1
   148   146   147    1
   149   145   148    1
   150   147   148    2
   151   141   149   am
   152   149   150    1
   153   150   151    1
   154   151   152    2
   155   150   153    1
   156   153   154    1
   157   154   155   ar
   158   154   156   ar
   159   151   157    1
   160     1   158    1
   161     1   159    1
   162     2   160    1
   163     5   161    1
   164     6   162    1
   165     6   163    1
   166     6   164    1
   167     7   165    1
   168     8   166    1
   169     9   167    1
   170    12   168    1
   171    13   169    1
   172    13   170    1
   173    13   171    1
   174    14   172    1
   175    15   173    1
   176    16   174    1
   177    19   175    1
   178    19   176    1
   179    21   177    1
   180    22   178    1
   181    23   179    1
   182    24   180    1
   183    26   181    1
   184    27   182    1
   185    28   183    1
   186    31   184    1
   187    31   185    1
   188    31   186    1
   189    32   187    1
   190    33   188    1
   191    68   189    1
   192    68   190    1
   193    36   191    1
   194    36   192    1
   195    40   193    1
   196    41   194    1
   197    44   195    1
   198    44   196    1
   199    46   197    1
   200    47   198    1
   201    48   199    1
   202    49   200    1
   203    50   201    1
   204    51   202    1
   205    52   203    1
   206    55   204    1
   207    56   205    1
   208    56   206    1
   209    57   207    1
   210    57   208    1
   211    57   209    1
   212    58   210    1
   213    58   211    1
   214    58   212    1
   215    59   213    1
   216    60   214    1
   217    63   215    1
   218    63   216    1
   219    63   217    1
   220    64   218    1
   221    65   219    1
   222   130   220    1
   223   130   221    1
   224   130   222    1
   225   131   223    1
   226   132   224    1
   227    69   225    1
   228    70   226    1
   229    71   227    1
   230    71   228    1
   231    74   229    1
   232    75   230    1
   233    78   231    1
   234    78   232    1
   235    79   233    1
   236    79   234    1
   237    80   235    1
   238    80   236    1
   239    83   237    1
   240    84   238    1
   241    85   239    1
   242    86   240    1
   243    89   241    1
   244    90   242    1
   245    90   243    1
   246    90   244    1
   247    91   245    1
   248    92   246    1
   249    93   247    1
   250    93   248    1
   251    96   249    1
   252    97   250    1
   253   100   251    1
   254   100   252    1
   255   101   253    1
   256   101   254    1
   257   102   255    1
   258   102   256    1
   259   105   257    1
   260   106   258    1
   261   107   259    1
   262   108   260    1
   263   111   261    1
   264   111   262    1
   265   112   263    1
   266   112   264    1
   267   113   265    1
   268   113   266    1
   269   116   267    1
   270   117   268    1
   271   118   269    1
   272   119   270    1
   273   122   271    1
   274   122   272    1
   275   124   273    1
   276   124   274    1
   277   126   275    1
   278   127   276    1
   279   135   277    1
   280   136   278    1
   281   136   279    1
   282   137   280    1
   283   137   281    1
   284   137   282    1
   285   138   283    1
   286   138   284    1
   287   138   285    1
   288   139   286    1
   289   140   287    1
   290   143   288    1
   291   143   289    1
   292   145   290    1
   293   146   291    1
   294   147   292    1
   295   149   293    1
   296   150   294    1
   297   153   295    1
   298   153   296    1
   299   157   297    1
@<TRIPOS>SUBSTRUCTURE
     1 THR5        1 GROUP             0 K     THR     0  
     2 THR6        8 GROUP             0 K     THR     0  
     3 TYR7       15 GROUP             0 K     TYR     0  
     4 ALA8       27 GROUP             0 K     ALA     0  
     5 ASP9       32 GROUP             0 K     ASP     0  
     6 PHE10      40 GROUP             0 K     PHE     0  
     7 ILE11      51 GROUP             0 K     ILE     0  
     8 ALA12      59 GROUP             0 K     ALA     0  
     9 SER13      64 GROUP             0 K     SER     0  
    10 GLY14      70 GROUP             0 K     GLY     0  
    11 ARG15      74 GROUP             0 K     ARG     0  
    12 THR16      85 GROUP             0 K     THR     0  
    13 GLY17      92 GROUP             0 K     GLY     0  
    14 ARG18      96 GROUP             0 K     ARG     0  
    15 ARG19     107 GROUP             0 K     ARG     0  
    16 ASN20     118 GROUP             0 K     ASN     0  
    17 ALA21     126 GROUP             0 K     ALA     0  
    18 ILE22     131 GROUP             0 K     ILE     0  
    19 HIS23     139 GROUP             0 K     HIS     0  
    20 ASP24     149 GROUP             0 K     ASP     0  
@<TRIPOS>SET
CCDC_LIGAND STATIC ATOMS
297 1 2 3 4 5 6 7 8 9 \
10 11 12 13 14 15 16 17 18 19 \
20 21 22 23 24 25 26 27 28 29 \
30 31 32 33 34 35 36 37 38 39 \
40 41 42 43 44 45 46 47 48 49 \
50 51 52 53 54 55 56 57 58 59 \
60 61 62 63 64 65 66 67 68 69 \
70 71 72 73 74 75 76 77 78 79 \
80 81 82 83 84 85 86 87 88 89 \
90 91 92 93 94 95 96 97 98 99 \
100 101 102 103 104 105 106 107 108 109 \
110 111 112 113 114 115 116 117 118 119 \
120 121 122 123 124 125 126 127 128 129 \
130 131 132 133 134 135 136 137 138 139 \
140 141 142 143 144 145 146 147 148 149 \
150 151 152 153 154 155 156 157 158 159 \
160 161 162 163 164 165 166 167 168 169 \
170 171 172 173 174 175 176 177 178 179 \
180 181 182 183 184 185 186 187 188 189 \
190 191 192 193 194 195 196 197 198 199 \
200 201 202 203 204 205 206 207 208 209 \
210 211 212 213 214 215 216 217 218 219 \
220 221 222 223 224 225 226 227 228 229 \
230 231 232 233 234 235 236 237 238 239 \
240 241 242 243 244 245 246 247 248 249 \
250 251 252 253 254 255 256 257 258 259 \
260 261 262 263 264 265 266 267 268 269 \
270 271 272 273 274 275 276 277 278 279 \
280 281 282 283 284 285 286 287 288 289 \
290 291 292 293 294 295 296 297 
