@<TRIPOS>MOLECULE
I:THR5
   297   299    20     0     1
SMALL
NO_CHARGES
****
Generated from the CSD

@<TRIPOS>ATOM
     1 N      -19.0790  12.2830  21.6250   N.3       1 THR5   0.0000
     2 CA     -19.6870  11.2630  20.7050   C.3       1 THR5   0.0000
     3 C      -19.5500   9.8470  21.2860   C.2       1 THR5   0.0000
     4 O      -18.7660   9.6140  22.1930   O.2       1 THR5   0.0000
     5 CB     -18.9340  11.2350  19.3500   C.3       1 THR5   0.0000
     6 CG2    -18.8280  12.6450  18.7130   C.3       1 THR5   0.0000
     7 OG1    -17.6110  10.6930  19.5820   O.3       1 THR5   0.0000
     8 N      -20.2890   8.9050  20.7140   N.am      2 THR6   0.0000
     9 CA     -20.2480   7.5390  21.1120   C.3       2 THR6   0.0000
    10 C      -18.8450   6.9580  20.8850   C.2       2 THR6   0.0000
    11 O      -18.3580   6.1920  21.7230   O.2       2 THR6   0.0000
    12 CB     -21.3320   6.7490  20.3860   C.3       2 THR6   0.0000
    13 CG2    -21.4430   5.3430  20.9540   C.3       2 THR6   0.0000
    14 OG1    -22.5990   7.3590  20.6610   O.3       2 THR6   0.0000
    15 N      -18.1690   7.3320  19.7980   N.am      3 TYR7   0.0000
    16 CA     -16.8290   6.7860  19.5750   C.3       3 TYR7   0.0000
    17 C      -15.8390   7.3220  20.6410   C.2       3 TYR7   0.0000
    18 O      -14.9470   6.6090  21.0710   O.2       3 TYR7   0.0000
    19 CB     -16.3380   7.0610  18.1420   C.3       3 TYR7   0.0000
    20 CG     -14.9910   6.4700  17.7390   C.ar      3 TYR7   0.0000
    21 CD1    -14.5300   5.2390  18.2490   C.ar      3 TYR7   0.0000
    22 CD2    -14.2120   7.1010  16.7660   C.ar      3 TYR7   0.0000
    23 CE1    -13.2710   4.7190  17.8470   C.ar      3 TYR7   0.0000
    24 CE2    -12.9890   6.5740  16.3430   C.ar      3 TYR7   0.0000
    25 CZ     -12.5210   5.4000  16.8810   C.ar      3 TYR7   0.0000
    26 OH     -11.3080   4.9370  16.4610   O.3       3 TYR7   0.0000
    27 N      -16.0260   8.5700  21.0650   N.am      4 ALA8   0.0000
    28 CA     -15.1980   9.1910  22.0960   C.3       4 ALA8   0.0000
    29 C      -15.4080   8.4320  23.4000   C.2       4 ALA8   0.0000
    30 O      -14.4390   8.1840  24.1310   O.2       4 ALA8   0.0000
    31 CB     -15.5810  10.6610  22.2770   C.3       4 ALA8   0.0000
    32 N      -16.6670   8.0510  23.6730   N.am      5 ASP9   0.0000
    33 CA     -17.0410   7.4100  24.9670   C.3       5 ASP9   0.0000
    34 C      -16.3860   6.0360  25.0530   C.2       5 ASP9   0.0000
    35 O      -15.9560   5.5760  26.1160   O.2       5 ASP9   0.0000
    36 CB     -18.5810   7.3130  25.1530   C.3       5 ASP9   0.0000
    37 CG     -19.2780   8.7130  25.2380   C.ar      5 ASP9   0.0000
    38 OD1    -18.6950   9.6820  25.7610   O.co2     5 ASP9   0.0000
    39 OD2    -20.4290   8.8860  24.7910   O.co2     5 ASP9   0.0000
    40 N      -16.3400   5.3840  23.8970   N.am      6 PHE10   0.0000
    41 CA     -15.6660   4.1120  23.7670   C.3       6 PHE10   0.0000
    42 C      -14.1620   4.3010  23.9810   C.2       6 PHE10   0.0000
    43 O      -13.5500   3.4940  24.6870   O.2       6 PHE10   0.0000
    44 CB     -15.9890   3.4900  22.3980   C.3       6 PHE10   0.0000
    45 CG     -15.2080   2.2600  22.0980   C.ar      6 PHE10   0.0000
    46 CD1    -15.4830   1.0670  22.7660   C.ar      6 PHE10   0.0000
    47 CD2    -14.1610   2.2910  21.1490   C.ar      6 PHE10   0.0000
    48 CE1    -14.7380  -0.0880  22.4910   C.ar      6 PHE10   0.0000
    49 CE2    -13.4390   1.1310  20.8420   C.ar      6 PHE10   0.0000
    50 CZ     -13.7230  -0.0550  21.5210   C.ar      6 PHE10   0.0000
    51 N      -13.5700   5.3530  23.3900   N.am      7 ILE11   0.0000
    52 CA     -12.1360   5.6250  23.5950   C.3       7 ILE11   0.0000
    53 C      -11.8020   5.7140  25.1060   C.2       7 ILE11   0.0000
    54 O      -10.7240   5.3110  25.5260   O.2       7 ILE11   0.0000
    55 CB     -11.5860   6.9360  22.8620   C.3       7 ILE11   0.0000
    56 CG1    -12.0820   7.1110  21.4170   C.3       7 ILE11   0.0000
    57 CG2    -10.0700   6.9840  22.8760   C.3       7 ILE11   0.0000
    58 CD1    -11.9090   5.9690  20.5550   C.3       7 ILE11   0.0000
    59 N      -12.7330   6.2070  25.9010   N.am      8 ALA12   0.0000
    60 CA     -12.5180   6.4490  27.3270   C.3       8 ALA12   0.0000
    61 C      -13.0140   5.3480  28.2840   C.2       8 ALA12   0.0000
    62 O      -12.7680   5.4400  29.4820   O.2       8 ALA12   0.0000
    63 CB     -13.1490   7.8020  27.7210   C.3       8 ALA12   0.0000
    64 N      -13.7320   4.3450  27.7710   N.am      9 SER13   0.0000
    65 CA     -14.0910   3.1350  28.5290   C.3       9 SER13   0.0000
    66 C      -12.7970   2.3670  28.7040   C.2       9 SER13   0.0000
    67 O      -11.8660   2.5340  27.9140   O.2       9 SER13   0.0000
    68 CB     -15.0180   2.2790  27.7000   C.3       9 SER13   0.0000
    69 OG     -14.2900   1.6980  26.6060   O.3       9 SER13   0.0000
    70 N      -12.6620   1.5030  29.6870   N.am     10 GLY14   0.0000
    71 CA     -11.3140   0.8970  29.8040   C.3      10 GLY14   0.0000
    72 C      -11.0670  -0.2590  28.8460   C.2      10 GLY14   0.0000
    73 O      -10.2620  -1.1380  29.1550   O.2      10 GLY14   0.0000
    74 N      -11.7470  -0.2600  27.6980   N.am     11 ARG15   0.0000
    75 CA     -11.9500  -1.4970  26.9220   C.3      11 ARG15   0.0000
    76 C      -11.7450  -1.3330  25.4320   C.2      11 ARG15   0.0000
    77 O      -12.5210  -1.8540  24.6400   O.2      11 ARG15   0.0000
    78 CB     -13.3630  -2.0510  27.1470   C.3      11 ARG15   0.0000
    79 CG     -13.7890  -2.2550  28.6480   C.3      11 ARG15   0.0000
    80 CD     -14.7080  -3.4520  28.8150   C.3      11 ARG15   0.0000
    81 NE     -14.0210  -4.4710  29.5840   N.2      11 ARG15   0.0000
    82 CZ     -14.0240  -5.7800  29.3460   C.ar     11 ARG15   0.0000
    83 NH1    -14.6730  -6.2970  28.3040   N.2      11 ARG15   0.0000
    84 NH2    -13.3380  -6.5830  30.1720   N.2      11 ARG15   0.0000
    85 N      -10.7050  -0.6110  25.0450   N.am     12 THR16   0.0000
    86 CA     -10.3720  -0.4430  23.6350   C.3      12 THR16   0.0000
    87 C       -9.3140  -1.4490  23.3040   C.2      12 THR16   0.0000
    88 O       -8.9840  -1.6300  22.1540   O.2      12 THR16   0.0000
    89 CB      -9.8650   1.0120  23.2900   C.3      12 THR16   0.0000
    90 CG2    -10.8060   2.1310  23.8850   C.3      12 THR16   0.0000
    91 OG1     -8.5580   1.1970  23.8370   O.3      12 THR16   0.0000
    92 N       -8.7890  -2.1300  24.3180   N.am     13 GLY17   0.0000
    93 CA      -7.8320  -3.2130  24.0790   C.3      13 GLY17   0.0000
    94 C       -8.4620  -4.5550  23.7360   C.2      13 GLY17   0.0000
    95 O       -9.6780  -4.6860  23.5770   O.2      13 GLY17   0.0000
    96 N       -7.5990  -5.5540  23.6000   N.am     14 ARG18   0.0000
    97 CA      -7.9890  -6.9290  23.4140   C.3      14 ARG18   0.0000
    98 C       -8.7230  -7.3460  24.6590   C.2      14 ARG18   0.0000
    99 O       -8.2830  -7.0710  25.7780   O.2      14 ARG18   0.0000
   100 CB      -6.7370  -7.7870  23.1790   C.3      14 ARG18   0.0000
   101 CG      -5.9410  -7.2870  21.9270   C.3      14 ARG18   0.0000
   102 CD      -4.7190  -8.0830  21.4740   C.3      14 ARG18   0.0000
   103 NE      -5.0910  -9.4060  21.0280   N.2      14 ARG18   0.0000
   104 CZ      -5.1220 -10.4820  21.8230   C.ar     14 ARG18   0.0000
   105 NH1     -4.7950 -10.3690  23.0970   N.2      14 ARG18   0.0000
   106 NH2     -5.4930 -11.6820  21.3480   N.2      14 ARG18   0.0000
   107 N       -9.8660  -7.9850  24.4640   N.am     15 ARG19   0.0000
   108 CA     -10.7120  -8.3590  25.5740   C.3      15 ARG19   0.0000
   109 C      -10.5370  -9.8320  25.8610   C.2      15 ARG19   0.0000
   110 O      -10.5370 -10.6500  24.9400   O.2      15 ARG19   0.0000
   111 CB     -12.1710  -8.0330  25.2630   C.3      15 ARG19   0.0000
   112 CG     -12.4220  -6.5490  25.0750   C.3      15 ARG19   0.0000
   113 CD     -13.5810  -6.2530  24.1360   C.3      15 ARG19   0.0000
   114 NE     -13.2970  -6.6070  22.7520   N.2      15 ARG19   0.0000
   115 CZ     -13.9820  -6.1500  21.6940   C.ar     15 ARG19   0.0000
   116 NH1    -14.9790  -5.3010  21.8450   N.2      15 ARG19   0.0000
   117 NH2    -13.6780  -6.5560  20.4730   N.2      15 ARG19   0.0000
   118 N      -10.3530 -10.1410  27.1460   N.am     16 ASN20   0.0000
   119 CA     -10.2230 -11.5030  27.6230   C.3      16 ASN20   0.0000
   120 C      -11.5810 -12.1640  27.6570   C.2      16 ASN20   0.0000
   121 O      -12.5990 -11.4960  27.8760   O.2      16 ASN20   0.0000
   122 CB      -9.6360 -11.5260  29.0430   C.3      16 ASN20   0.0000
   123 CG      -8.2160 -10.9890  29.1090   C.2      16 ASN20   0.0000
   124 ND2     -7.9350 -10.2600  30.1600   N.am     16 ASN20   0.0000
   125 OD1     -7.3910 -11.2370  28.2380   O.2      16 ASN20   0.0000
   126 N      -11.5850 -13.4800  27.4450   N.am     17 ALA21   0.0000
   127 CA     -12.7530 -14.3060  27.7110   C.3      17 ALA21   0.0000
   128 C      -13.0060 -14.2120  29.2080   C.2      17 ALA21   0.0000
   129 O      -12.0610 -14.0860  29.9580   O.2      17 ALA21   0.0000
   130 CB     -12.4730 -15.7310  27.2940   C.3      17 ALA21   0.0000
   131 N      -14.2470 -14.2160  29.6750   N.am     18 ILE22   0.0000
   132 CA     -14.3960 -14.3230  31.1190   C.3      18 ILE22   0.0000
   133 C      -14.2670 -15.7680  31.4720   C.2      18 ILE22   0.0000
   134 O      -14.7870 -16.6450  30.7680   O.2      18 ILE22   0.0000
   135 CB     -15.6820 -13.7230  31.7480   C.3      18 ILE22   0.0000
   136 CG1    -16.9020 -13.8270  30.8270   C.3      18 ILE22   0.0000
   137 CG2    -15.3890 -12.2900  32.2950   C.3      18 ILE22   0.0000
   138 CD1    -17.5900 -15.1280  30.9250   C.3      18 ILE22   0.0000
   139 N      -13.5320 -16.0310  32.5410   N.am     19 HIS23   0.0000
   140 CA     -13.3590 -17.4030  32.9660   C.3      19 HIS23   0.0000
   141 C      -14.4900 -17.6600  33.9440   C.2      19 HIS23   0.0000
   142 O      -15.4080 -18.4410  33.6410   O.2      19 HIS23   0.0000
   143 CB     -11.9500 -17.6730  33.5520   C.3      19 HIS23   0.0000
   144 CG     -11.3180 -16.4910  34.2390   C.2      19 HIS23   0.0000
   145 CD2    -11.5040 -15.9680  35.4770   C.2      19 HIS23   0.0000
   146 ND1    -10.3310 -15.7240  33.6470   N.pl3    19 HIS23   0.0000
   147 CE1     -9.9510 -14.7700  34.4820   C.2      19 HIS23   0.0000
   148 NE2    -10.6450 -14.8980  35.6020   N.2      19 HIS23   0.0000
   149 N      -14.4390 -16.9380  35.0700   N.am     20 ASP24   0.0000
   150 CA     -15.4610 -16.9790  36.1210   C.3      20 ASP24   0.0000
   151 C      -16.8140 -16.4620  35.6080   C.2      20 ASP24   0.0000
   152 O      -17.7830 -17.2360  35.5250   O.2      20 ASP24   0.0000
   153 CB     -15.0090 -16.1540  37.3420   C.3      20 ASP24   0.0000
   154 CG     -13.9840 -16.8930  38.2190   C.ar     20 ASP24   0.0000
   155 OD1    -14.4110 -17.7200  39.0550   O.co2    20 ASP24   0.0000
   156 OD2    -12.7610 -16.6460  38.1030   O.co2    20 ASP24   0.0000
   157 OXT    -16.9560 -15.2760  35.2530   O.3      20 ASP24   0.0000
   158 H1     -15.9075 -14.3378  32.6181   H        18 ILE22   0.0000
   159 H2     -15.0571 -11.6506  31.4784   H        18 ILE22   0.0000
   160 H3     -16.2957 -11.8767  32.7342   H        18 ILE22   0.0000
   161 H4     -14.6098 -12.3434  33.0539   H        18 ILE22   0.0000
   162 H5     -16.5733 -13.6851  29.7985   H        18 ILE22   0.0000
   163 H6     -17.6066 -13.0410  31.0946   H        18 ILE22   0.0000
   164 H7     -22.5909   8.2984  20.3393   H         2 THR6   0.0000
   165 H8     -21.1395   6.7205  19.3145   H         2 THR6   0.0000
   166 H9     -17.9336 -15.2808  31.9470   H        18 ILE22   0.0000
   167 H10    -18.4441 -15.1388  30.2494   H        18 ILE22   0.0000
   168 H11    -16.9003 -15.9249  30.6509   H        18 ILE22   0.0000
   169 H12    -21.6959   5.3978  22.0118   H         2 THR6   0.0000
   170 H13    -22.2212   4.7972  20.4225   H         2 THR6   0.0000
   171 H14    -20.4915   4.8270  20.8345   H         2 THR6   0.0000
   172 H15    -13.5487 -13.8066  31.5678   H        18 ILE22   0.0000
   173 H16     -9.6347 -12.5545  29.4010   H        16 ASN20   0.0000
   174 H17    -10.2672 -10.9175  29.6890   H        16 ASN20   0.0000
   175 H18     -7.2321  -3.3402  24.9789   H        13 GLY17   0.0000
   176 H19     -7.1876  -2.9196  23.2516   H        13 GLY17   0.0000
   177 H20     -9.0546  -1.8966  25.2694   H        13 GLY17   0.0000
   178 H21     -4.0243  -8.1719  22.3079   H        14 ARG18   0.0000
   179 H22     -4.2356  -7.5548  20.6535   H        14 ARG18   0.0000
   180 H23     -5.6027  -6.2750  22.1444   H        14 ARG18   0.0000
   181 H24     -6.6382  -7.2649  21.0907   H        14 ARG18   0.0000
   182 H25    -10.4067  -7.7928  26.4527   H        15 ARG19   0.0000
   183 H26    -16.6428   8.0235  25.7738   H         5 ASP9   0.0000
   184 H27    -17.3880   8.2045  22.9753   H         5 ASP9   0.0000
   185 H28    -16.6265  10.7298  22.5739   H         4 ALA8   0.0000
   186 H29    -14.9546  11.1070  23.0481   H         4 ALA8   0.0000
   187 H30    -15.4346  11.1926  21.3379   H         4 ALA8   0.0000
   188 H31     -9.9557 -15.8703  32.7153   H        19 HIS23   0.0000
   189 H32    -12.2023 -16.3271  36.2315   H        19 HIS23   0.0000
   190 H33    -14.1506   9.1248  21.8052   H         4 ALA8   0.0000
   191 H34    -16.7774   9.1144  20.6536   H         4 ALA8   0.0000
   192 H35    -11.4178   4.0329  16.0652   H         3 TYR7   0.0000
   193 H36    -12.4057   7.0951  15.5853   H         3 TYR7   0.0000
   194 H37    -11.2968 -17.9810  32.7369   H        19 HIS23   0.0000
   195 H38    -12.0330 -18.4820  34.2762   H        19 HIS23   0.0000
   196 H39    -12.8921   3.7977  18.2869   H         3 TYR7   0.0000
   197 H40    -14.5683   8.0305  16.3244   H         3 TYR7   0.0000
   198 H41    -13.0932 -15.2760  33.0584   H        19 HIS23   0.0000
   199 H42    -15.1437   4.6830  18.9562   H         3 TYR7   0.0000
   200 H43    -10.1248  -0.1631  25.7472   H        12 THR16   0.0000
   201 H44    -13.3253  -7.5851  30.0110   H        11 ARG15   0.0000
   202 H45    -14.6599  -7.2993  28.1444   H        11 ARG15   0.0000
   203 H46    -10.1530  -8.2162  23.5183   H        15 ARG19   0.0000
   204 H47     -5.5111 -12.4883  21.9643   H        14 ARG18   0.0000
   205 H48     -4.8181 -11.1843  23.7011   H        14 ARG18   0.0000
   206 H49    -14.3079  -1.3614  28.9918   H        11 ARG15   0.0000
   207 H50    -12.8951  -2.4101  29.2503   H        11 ARG15   0.0000
   208 H51    -14.5365   3.3865  29.4904   H         9 SER13   0.0000
   209 H52    -14.0463   4.4211  26.8089   H         9 SER13   0.0000
   210 H53    -14.2179   7.7779  27.5143   H         8 ALA12   0.0000
   211 H54    -12.9886   7.9818  28.7830   H         8 ALA12   0.0000
   212 H55    -12.6855   8.6006  27.1436   H         8 ALA12   0.0000
   213 H56    -11.4434   6.5421  27.4767   H         8 ALA12   0.0000
   214 H57    -13.6405   6.4285  25.5041   H         8 ALA12   0.0000
   215 H58    -14.9717  -3.8492  27.8359   H        11 ARG15   0.0000
   216 H59    -15.6128  -3.1473  29.3388   H        11 ARG15   0.0000
   217 H60    -13.4264  -3.0167  26.6477   H        11 ARG15   0.0000
   218 H61    -14.0694  -1.3593  26.6905   H        11 ARG15   0.0000
   219 H62     -8.6529  -7.0077  22.5544   H        14 ARG18   0.0000
   220 H63     -6.6078  -5.3374  23.6286   H        14 ARG18   0.0000
   221 H64    -15.0503 -14.1481  29.0584   H        18 ILE22   0.0000
   222 H65     -7.9378   0.5270  23.4465   H        12 THR16   0.0000
   223 H66    -10.8434   2.0352  24.9691   H        12 THR16   0.0000
   224 H67    -10.4150   3.1124  23.6206   H        12 THR16   0.0000
   225 H68    -11.8088   2.0174  23.4757   H        12 THR16   0.0000
   226 H69     -9.8174   1.1252  22.2079   H        12 THR16   0.0000
   227 H70    -19.4678  10.5785  18.6644   H         1 THR5   0.0000
   228 H71    -13.4226   1.2692  30.3171   H        10 GLY14   0.0000
   229 H72    -13.5519   1.1364  26.9607   H         9 SER13   0.0000
   230 H73    -15.8275   2.8943  27.3102   H         9 SER13   0.0000
   231 H74    -15.4316   1.4862  28.3215   H         9 SER13   0.0000
   232 H75    -11.2374  -2.2388  27.2796   H        11 ARG15   0.0000
   233 H76    -12.1338   0.6118  27.3506   H        11 ARG15   0.0000
   234 H77    -11.1914   0.5298  30.8218   H        10 GLY14   0.0000
   235 H78    -10.5732   1.6700  29.6053   H        10 GLY14   0.0000
   236 H79    -15.8836 -15.9241  37.9488   H        20 ASP24   0.0000
   237 H80    -14.5592 -15.2276  36.9879   H        20 ASP24   0.0000
   238 H81    -16.2814   1.0326  23.5058   H         6 PHE10   0.0000
   239 H82    -15.7761   4.2285  21.6265   H         6 PHE10   0.0000
   240 H83    -17.0482   3.2378  22.3768   H         6 PHE10   0.0000
   241 H84    -15.5872 -18.0140  36.4352   H        20 ASP24   0.0000
   242 H85    -16.0407   3.4455  24.5425   H         6 PHE10   0.0000
   243 H86    -16.7902   5.7898  23.0829   H         6 PHE10   0.0000
   244 H87    -13.6427 -16.3233  35.2049   H        20 ASP24   0.0000
   245 H88    -18.7855   6.7674  26.0730   H         5 ASP9   0.0000
   246 H89    -18.9988   6.7684  24.3075   H         5 ASP9   0.0000
   247 H90     -9.1969 -14.0102  34.2820   H        19 HIS23   0.0000
   248 H91    -12.4538   5.1195  20.9642   H         7 ILE11   0.0000
   249 H92    -12.2921   6.2020  19.5626   H         7 ILE11   0.0000
   250 H93    -10.8504   5.7227  20.4869   H         7 ILE11   0.0000
   251 H94    -18.0933  12.0778  21.7536   H         1 THR5   0.0000
   252 H95    -19.1820  13.2080  21.2200   H         1 THR5   0.0000
   253 H96     -9.6744   6.1093  22.3619   H         7 ILE11   0.0000
   254 H97     -9.7307   7.8867  22.3702   H         7 ILE11   0.0000
   255 H98     -9.7165   6.9904  23.9060   H         7 ILE11   0.0000
   256 H99    -16.3348 -15.0780  34.5041   H        20 ASP24   0.0000
   257 H100   -11.5417   7.9477  20.9766   H         7 ILE11   0.0000
   258 H101   -13.1450   7.3445  21.4540   H         7 ILE11   0.0000
   259 H102   -11.9404   7.7949  23.4301   H         7 ILE11   0.0000
   260 H103   -11.5859   4.7757  23.1926   H         7 ILE11   0.0000
   261 H104   -14.1170   5.9675  22.7954   H         7 ILE11   0.0000
   262 H105   -13.1558  -0.9574  21.2979   H         6 PHE10   0.0000
   263 H106   -12.6620   1.1541  20.0794   H         6 PHE10   0.0000
   264 H107   -14.9463  -1.0112  23.0297   H         6 PHE10   0.0000
   265 H108   -13.9130   3.2272  20.6511   H         6 PHE10   0.0000
   266 H109    -9.5683 -12.0586  26.9532   H        16 ASN20   0.0000
   267 H110   -20.9120   9.1707  19.9580   H         2 THR6   0.0000
   268 H111   -14.2010  -6.2057  19.6768   H        15 ARG19   0.0000
   269 H112   -10.3016  -9.3855  27.8219   H        16 ASN20   0.0000
   270 H113   -13.6125 -13.9210  27.1642   H        17 ALA21   0.0000
   271 H114   -10.7444 -13.9211  27.0857   H        17 ALA21   0.0000
   272 H115   -17.6896   9.7736  19.9489   H         1 THR5   0.0000
   273 H116   -20.4598   7.4949  22.1793   H         2 THR6   0.0000
   274 H117   -11.6235 -16.1139  27.8577   H        17 ALA21   0.0000
   275 H118   -13.3487 -16.3466  27.4943   H        17 ALA21   0.0000
   276 H119   -12.2449 -15.7596  26.2295   H        17 ALA21   0.0000
   277 H120   -13.5001 -18.0499  32.1014   H        19 HIS23   0.0000
   278 H121   -11.2574  -0.6563  23.0380   H        12 THR16   0.0000
   279 H122   -11.5206  -6.0943  24.6667   H        15 ARG19   0.0000
   280 H123   -12.6424  -6.1092  26.0466   H        15 ARG19   0.0000
   281 H124   -12.7886  -8.3873  26.0870   H        15 ARG19   0.0000
   282 H125   -12.4545  -8.5511  24.3481   H        15 ARG19   0.0000
   283 H126    -7.0388  -8.8211  23.0195   H        14 ARG18   0.0000
   284 H127    -6.0947  -7.7275  24.0564   H        14 ARG18   0.0000
   285 H128   -13.8026  -5.1878  24.1833   H        15 ARG19   0.0000
   286 H129   -14.4498  -6.8196  24.4678   H        15 ARG19   0.0000
   287 H130   -15.4869  -4.9651  21.0330   H        15 ARG19   0.0000
   288 H131   -20.7381  11.4945  20.5392   H         1 THR5   0.0000
   289 H132    -7.0056  -9.8675  30.2716   H        16 ASN20   0.0000
   290 H133    -8.6466 -10.0875  30.8630   H        16 ASN20   0.0000
   291 H134   -18.2885  13.3084  19.3874   H         1 THR5   0.0000
   292 H135   -18.2936  12.5765  17.7666   H         1 THR5   0.0000
   293 H136   -19.8275  13.0402  18.5377   H         1 THR5   0.0000
   294 H137   -16.2708   8.1411  18.0208   H         3 TYR7   0.0000
   295 H138   -17.0870   6.6649  17.4578   H         3 TYR7   0.0000
   296 H139   -16.8905   5.7058  19.6987   H         3 TYR7   0.0000
   297 H140   -18.5768   7.9845  19.1361   H         3 TYR7   0.0000
@<TRIPOS>BOND
     1     1     2    1
     2     2     3    1
     3     3     4    2
     4     2     5    1
     5     5     6    1
     6     5     7    1
     7     3     8   am
     8     8     9    1
     9     9    10    1
    10    10    11    2
    11     9    12    1
    12    12    13    1
    13    12    14    1
    14    10    15   am
    15    15    16    1
    16    16    17    1
    17    17    18    2
    18    16    19    1
    19    19    20    1
    20    20    21   ar
    21    20    22   ar
    22    21    23   ar
    23    22    24   ar
    24    23    25   ar
    25    24    25   ar
    26    25    26    1
    27    17    27   am
    28    27    28    1
    29    28    29    1
    30    29    30    2
    31    28    31    1
    32    29    32   am
    33    32    33    1
    34    33    34    1
    35    34    35    2
    36    33    36    1
    37    36    37    1
    38    37    38   ar
    39    37    39   ar
    40    34    40   am
    41    40    41    1
    42    41    42    1
    43    42    43    2
    44    41    44    1
    45    44    45    1
    46    45    46   ar
    47    45    47   ar
    48    46    48   ar
    49    47    49   ar
    50    48    50   ar
    51    49    50   ar
    52    42    51   am
    53    51    52    1
    54    52    53    1
    55    53    54    2
    56    52    55    1
    57    55    56    1
    58    55    57    1
    59    56    58    1
    60    53    59   am
    61    59    60    1
    62    60    61    1
    63    61    62    2
    64    60    63    1
    65    61    64   am
    66    64    65    1
    67    65    66    1
    68    66    67    2
    69    65    68    1
    70    68    69    1
    71    66    70   am
    72    70    71    1
    73    71    72    1
    74    72    73    2
    75    72    74   am
    76    74    75    1
    77    75    76    1
    78    76    77    2
    79    75    78    1
    80    78    79    1
    81    79    80    1
    82    80    81    1
    83    81    82   ar
    84    82    83   ar
    85    82    84   ar
    86    76    85   am
    87    85    86    1
    88    86    87    1
    89    87    88    2
    90    86    89    1
    91    89    90    1
    92    89    91    1
    93    87    92   am
    94    92    93    1
    95    93    94    1
    96    94    95    2
    97    94    96   am
    98    96    97    1
    99    97    98    1
   100    98    99    2
   101    97   100    1
   102   100   101    1
   103   101   102    1
   104   102   103    1
   105   103   104   ar
   106   104   105   ar
   107   104   106   ar
   108    98   107   am
   109   107   108    1
   110   108   109    1
   111   109   110    2
   112   108   111    1
   113   111   112    1
   114   112   113    1
   115   113   114    1
   116   114   115   ar
   117   115   116   ar
   118   115   117   ar
   119   109   118   am
   120   118   119    1
   121   119   120    1
   122   120   121    2
   123   119   122    1
   124   122   123    1
   125   123   124   am
   126   123   125    2
   127   120   126   am
   128   126   127    1
   129   127   128    1
   130   128   129    2
   131   127   130    1
   132   128   131   am
   133   131   132    1
   134   132   133    1
   135   133   134    2
   136   132   135    1
   137   135   136    1
   138   135   137    1
   139   136   138    1
   140   133   139   am
   141   139   140    1
   142   140   141    1
   143   141   142    2
   144   140   143    1
   145   143   144    1
   146   144   145    2
   147   144   146    1
   148   146   147    1
   149   145   148    1
   150   147   148    2
   151   141   149   am
   152   149   150    1
   153   150   151    1
   154   151   152    2
   155   150   153    1
   156   153   154    1
   157   154   155   ar
   158   154   156   ar
   159   151   157    1
   160   135   158    1
   161   137   159    1
   162   137   160    1
   163   137   161    1
   164   136   162    1
   165   136   163    1
   166    14   164    1
   167    12   165    1
   168   138   166    1
   169   138   167    1
   170   138   168    1
   171    13   169    1
   172    13   170    1
   173    13   171    1
   174   132   172    1
   175   122   173    1
   176   122   174    1
   177    93   175    1
   178    93   176    1
   179    92   177    1
   180   102   178    1
   181   102   179    1
   182   101   180    1
   183   101   181    1
   184   108   182    1
   185    33   183    1
   186    32   184    1
   187    31   185    1
   188    31   186    1
   189    31   187    1
   190   146   188    1
   191   145   189    1
   192    28   190    1
   193    27   191    1
   194    26   192    1
   195    24   193    1
   196   143   194    1
   197   143   195    1
   198    23   196    1
   199    22   197    1
   200   139   198    1
   201    21   199    1
   202    85   200    1
   203    84   201    1
   204    83   202    1
   205   107   203    1
   206   106   204    1
   207   105   205    1
   208    79   206    1
   209    79   207    1
   210    65   208    1
   211    64   209    1
   212    63   210    1
   213    63   211    1
   214    63   212    1
   215    60   213    1
   216    59   214    1
   217    80   215    1
   218    80   216    1
   219    78   217    1
   220    78   218    1
   221    97   219    1
   222    96   220    1
   223   131   221    1
   224    91   222    1
   225    90   223    1
   226    90   224    1
   227    90   225    1
   228    89   226    1
   229     5   227    1
   230    70   228    1
   231    69   229    1
   232    68   230    1
   233    68   231    1
   234    75   232    1
   235    74   233    1
   236    71   234    1
   237    71   235    1
   238   153   236    1
   239   153   237    1
   240    46   238    1
   241    44   239    1
   242    44   240    1
   243   150   241    1
   244    41   242    1
   245    40   243    1
   246   149   244    1
   247    36   245    1
   248    36   246    1
   249   147   247    1
   250    58   248    1
   251    58   249    1
   252    58   250    1
   253     1   251    1
   254     1   252    1
   255    57   253    1
   256    57   254    1
   257    57   255    1
   258   157   256    1
   259    56   257    1
   260    56   258    1
   261    55   259    1
   262    52   260    1
   263    51   261    1
   264    50   262    1
   265    49   263    1
   266    48   264    1
   267    47   265    1
   268   119   266    1
   269     8   267    1
   270   117   268    1
   271   118   269    1
   272   127   270    1
   273   126   271    1
   274     7   272    1
   275     9   273    1
   276   130   274    1
   277   130   275    1
   278   130   276    1
   279   140   277    1
   280    86   278    1
   281   112   279    1
   282   112   280    1
   283   111   281    1
   284   111   282    1
   285   100   283    1
   286   100   284    1
   287   113   285    1
   288   113   286    1
   289   116   287    1
   290     2   288    1
   291   124   289    1
   292   124   290    1
   293     6   291    1
   294     6   292    1
   295     6   293    1
   296    19   294    1
   297    19   295    1
   298    16   296    1
   299    15   297    1
@<TRIPOS>SUBSTRUCTURE
     1 THR5        1 GROUP             0 I     THR     0  
     2 THR6        8 GROUP             0 I     THR     0  
     3 TYR7       15 GROUP             0 I     TYR     0  
     4 ALA8       27 GROUP             0 I     ALA     0  
     5 ASP9       32 GROUP             0 I     ASP     0  
     6 PHE10      40 GROUP             0 I     PHE     0  
     7 ILE11      51 GROUP             0 I     ILE     0  
     8 ALA12      59 GROUP             0 I     ALA     0  
     9 SER13      64 GROUP             0 I     SER     0  
    10 GLY14      70 GROUP             0 I     GLY     0  
    11 ARG15      74 GROUP             0 I     ARG     0  
    12 THR16      85 GROUP             0 I     THR     0  
    13 GLY17      92 GROUP             0 I     GLY     0  
    14 ARG18      96 GROUP             0 I     ARG     0  
    15 ARG19     107 GROUP             0 I     ARG     0  
    16 ASN20     118 GROUP             0 I     ASN     0  
    17 ALA21     126 GROUP             0 I     ALA     0  
    18 ILE22     131 GROUP             0 I     ILE     0  
    19 HIS23     139 GROUP             0 I     HIS     0  
    20 ASP24     149 GROUP             0 I     ASP     0  
@<TRIPOS>SET
CCDC_LIGAND STATIC ATOMS
297 1 2 3 4 5 6 7 8 9 \
10 11 12 13 14 15 16 17 18 19 \
20 21 22 23 24 25 26 27 28 29 \
30 31 32 33 34 35 36 37 38 39 \
40 41 42 43 44 45 46 47 48 49 \
50 51 52 53 54 55 56 57 58 59 \
60 61 62 63 64 65 66 67 68 69 \
70 71 72 73 74 75 76 77 78 79 \
80 81 82 83 84 85 86 87 88 89 \
90 91 92 93 94 95 96 97 98 99 \
100 101 102 103 104 105 106 107 108 109 \
110 111 112 113 114 115 116 117 118 119 \
120 121 122 123 124 125 126 127 128 129 \
130 131 132 133 134 135 136 137 138 139 \
140 141 142 143 144 145 146 147 148 149 \
150 151 152 153 154 155 156 157 158 159 \
160 161 162 163 164 165 166 167 168 169 \
170 171 172 173 174 175 176 177 178 179 \
180 181 182 183 184 185 186 187 188 189 \
190 191 192 193 194 195 196 197 198 199 \
200 201 202 203 204 205 206 207 208 209 \
210 211 212 213 214 215 216 217 218 219 \
220 221 222 223 224 225 226 227 228 229 \
230 231 232 233 234 235 236 237 238 239 \
240 241 242 243 244 245 246 247 248 249 \
250 251 252 253 254 255 256 257 258 259 \
260 261 262 263 264 265 266 267 268 269 \
270 271 272 273 274 275 276 277 278 279 \
280 281 282 283 284 285 286 287 288 289 \
290 291 292 293 294 295 296 297 
