@<TRIPOS>MOLECULE
J:THR5
   297   299    20     0     1
SMALL
NO_CHARGES
****
Generated from the CSD

@<TRIPOS>ATOM
     1 N       -3.6300   6.8530  37.7740   N.3       1 THR5   0.0000
     2 CA      -3.5420   8.3190  37.4170   C.3       1 THR5   0.0000
     3 C       -3.5370   8.5020  35.8820   C.2       1 THR5   0.0000
     4 O       -3.4790   7.5150  35.1400   O.2       1 THR5   0.0000
     5 CB      -2.3280   8.9790  38.1050   C.3       1 THR5   0.0000
     6 CG2     -2.3100   8.6440  39.6110   C.3       1 THR5   0.0000
     7 OG1     -1.1110   8.5020  37.5260   O.3       1 THR5   0.0000
     8 N       -3.6510   9.7230  35.3710   N.am      2 THR6   0.0000
     9 CA      -3.6390   9.8400  33.9230   C.3       2 THR6   0.0000
    10 C       -2.2380   9.4700  33.3870   C.2       2 THR6   0.0000
    11 O       -2.1180   8.7650  32.3880   O.2       2 THR6   0.0000
    12 CB      -4.1650  11.2010  33.4280   C.3       2 THR6   0.0000
    13 CG2     -4.4340  11.1680  31.8980   C.3       2 THR6   0.0000
    14 OG1     -5.4160  11.4880  34.0600   O.3       2 THR6   0.0000
    15 N       -1.1890   9.9140  34.0860   N.am      3 TYR7   0.0000
    16 CA       0.1880   9.5800  33.7390   C.3       3 TYR7   0.0000
    17 C        0.4160   8.0640  33.7740   C.2       3 TYR7   0.0000
    18 O        1.0810   7.4840  32.8660   O.2       3 TYR7   0.0000
    19 CB       1.1480  10.2660  34.6910   C.3       3 TYR7   0.0000
    20 CG       2.5780   9.9970  34.3650   C.ar      3 TYR7   0.0000
    21 CD1      3.1060  10.4000  33.1370   C.ar      3 TYR7   0.0000
    22 CD2      3.4210   9.3330  35.2710   C.ar      3 TYR7   0.0000
    23 CE1      4.4300  10.1710  32.8200   C.ar      3 TYR7   0.0000
    24 CE2      4.7440   9.1060  34.9700   C.ar      3 TYR7   0.0000
    25 CZ       5.2450   9.5260  33.7330   C.ar      3 TYR7   0.0000
    26 OH       6.5540   9.2850  33.3690   O.3       3 TYR7   0.0000
    27 N       -0.1260   7.4210  34.8190   N.am      4 ALA8   0.0000
    28 CA      -0.1410   5.9530  34.8990   C.3       4 ALA8   0.0000
    29 C       -0.7580   5.3370  33.6320   C.2       4 ALA8   0.0000
    30 O       -0.2410   4.3500  33.0870   O.2       4 ALA8   0.0000
    31 CB      -0.8770   5.4900  36.1180   C.3       4 ALA8   0.0000
    32 N       -1.8520   5.9530  33.1700   N.am      5 ASP9   0.0000
    33 CA      -2.5420   5.5410  31.9460   C.3       5 ASP9   0.0000
    34 C       -1.6230   5.7770  30.7740   C.2       5 ASP9   0.0000
    35 O       -1.4790   4.8840  29.9490   O.2       5 ASP9   0.0000
    36 CB      -3.8590   6.3100  31.7400   C.3       5 ASP9   0.0000
    37 CG      -4.9610   5.8860  32.6970   C.ar      5 ASP9   0.0000
    38 OD1     -4.7990   4.8540  33.3670   O.co2     5 ASP9   0.0000
    39 OD2     -6.0220   6.5620  32.7860   O.co2     5 ASP9   0.0000
    40 N       -0.9640   6.9390  30.7210   N.am      6 PHE10   0.0000
    41 CA      -0.0170   7.2530  29.6340   C.3       6 PHE10   0.0000
    42 C        1.1720   6.3000  29.5070   C.2       6 PHE10   0.0000
    43 O        1.5650   5.9180  28.4340   O.2       6 PHE10   0.0000
    44 CB       0.5370   8.6660  29.7800   C.3       6 PHE10   0.0000
    45 CG       1.4430   9.0670  28.6510   C.ar      6 PHE10   0.0000
    46 CD1      0.9540   9.0910  27.3410   C.ar      6 PHE10   0.0000
    47 CD2      2.7800   9.3760  28.8860   C.ar      6 PHE10   0.0000
    48 CE1      1.7560   9.4540  26.2860   C.ar      6 PHE10   0.0000
    49 CE2      3.6170   9.7490  27.8330   C.ar      6 PHE10   0.0000
    50 CZ       3.0990   9.7890  26.5190   C.ar      6 PHE10   0.0000
    51 N        1.7620   5.9610  30.6320   N.am      7 ILE11   0.0000
    52 CA       2.9220   5.1250  30.6720   C.3       7 ILE11   0.0000
    53 C        2.6080   3.7500  30.0920   C.2       7 ILE11   0.0000
    54 O        3.4520   3.1690  29.4190   O.2       7 ILE11   0.0000
    55 CB       3.4390   5.1130  32.1410   C.3       7 ILE11   0.0000
    56 CG1      4.8700   5.5410  32.1820   C.3       7 ILE11   0.0000
    57 CG2      3.1970   3.8480  32.9330   C.3       7 ILE11   0.0000
    58 CD1      4.9380   6.9690  32.5010   C.3       7 ILE11   0.0000
    59 N        1.3720   3.2770  30.2940   N.am      8 ALA12   0.0000
    60 CA       0.9220   1.9130  29.8480   C.3       8 ALA12   0.0000
    61 C        0.2460   1.8750  28.4530   C.2       8 ALA12   0.0000
    62 O       -0.1270   0.7930  27.9680   O.2       8 ALA12   0.0000
    63 CB      -0.0110   1.2760  30.9000   C.3       8 ALA12   0.0000
    64 N        0.1020   3.0450  27.8330   N.am      9 SER13   0.0000
    65 CA      -0.3080   3.1530  26.4340   C.3       9 SER13   0.0000
    66 C        0.8150   2.7690  25.4750   C.2       9 SER13   0.0000
    67 O        1.9550   2.4870  25.8710   O.2       9 SER13   0.0000
    68 CB      -0.7690   4.5800  26.1250   C.3       9 SER13   0.0000
    69 OG       0.3260   5.4970  26.1010   O.3       9 SER13   0.0000
    70 N        0.4970   2.7530  24.2030   N.am     10 GLY14   0.0000
    71 CA       1.4240   2.2040  23.2200   C.3      10 GLY14   0.0000
    72 C        1.9410   3.3340  22.3490   C.2      10 GLY14   0.0000
    73 O        2.3130   3.1190  21.1970   O.2      10 GLY14   0.0000
    74 N        1.9600   4.5360  22.9310   N.am     11 ARG15   0.0000
    75 CA       2.4250   5.7310  22.2520   C.3      11 ARG15   0.0000
    76 C        3.3860   6.5640  23.1050   C.2      11 ARG15   0.0000
    77 O        3.2800   7.7500  23.1600   O.2      11 ARG15   0.0000
    78 CB       1.2150   6.5620  21.8620   C.3      11 ARG15   0.0000
    79 CG       0.4620   5.9900  20.6570   C.3      11 ARG15   0.0000
    80 CD      -0.0380   7.1280  19.7640   C.3      11 ARG15   0.0000
    81 NE       0.3690   6.8080  18.4090   N.2      11 ARG15   0.0000
    82 CZ       0.7750   7.6510  17.4770   C.ar     11 ARG15   0.0000
    83 NH1      0.8340   8.9470  17.6900   N.2      11 ARG15   0.0000
    84 NH2      1.1260   7.1490  16.3040   N.2      11 ARG15   0.0000
    85 N        4.3450   5.9160  23.7470   N.am     12 THR16   0.0000
    86 CA       5.2340   6.5960  24.6740   C.3      12 THR16   0.0000
    87 C        6.6060   6.8140  24.0700   C.2      12 THR16   0.0000
    88 O        7.4580   7.4540  24.7280   O.2      12 THR16   0.0000
    89 CB       5.4600   5.7670  25.9170   C.3      12 THR16   0.0000
    90 CG2      4.1640   5.5180  26.7050   C.3      12 THR16   0.0000
    91 OG1      5.9290   4.4910  25.4940   O.3      12 THR16   0.0000
    92 N        6.8390   6.2750  22.8650   N.am     13 GLY17   0.0000
    93 CA       8.0840   6.5100  22.1240   C.3      13 GLY17   0.0000
    94 C        8.0440   7.6660  21.1260   C.2      13 GLY17   0.0000
    95 O        6.9940   8.2990  20.9060   O.2      13 GLY17   0.0000
    96 N        9.1780   7.9580  20.4960   N.am     14 ARG18   0.0000
    97 CA       9.1790   8.9410  19.4110   C.3      14 ARG18   0.0000
    98 C        7.9710   8.6690  18.5010   C.2      14 ARG18   0.0000
    99 O        7.6110   7.5360  18.2270   O.2      14 ARG18   0.0000
   100 CB      10.4850   8.8610  18.6230   C.3      14 ARG18   0.0000
   101 CG      11.7110   9.3440  19.3670   C.3      14 ARG18   0.0000
   102 CD      13.0090   9.2230  18.5720   C.3      14 ARG18   0.0000
   103 NE      13.2840  10.4460  17.8150   N.2      14 ARG18   0.0000
   104 CZ      13.3720  10.5540  16.4740   C.ar     14 ARG18   0.0000
   105 NH1     13.2410   9.4830  15.6660   N.2      14 ARG18   0.0000
   106 NH2     13.6120  11.7580  15.9450   N.2      14 ARG18   0.0000
   107 N        7.3110   9.7150  18.0690   N.am     15 ARG19   0.0000
   108 CA       6.0760   9.5730  17.3390   C.3      15 ARG19   0.0000
   109 C        6.3390   9.9410  15.8780   C.2      15 ARG19   0.0000
   110 O        7.0490  10.8820  15.5900   O.2      15 ARG19   0.0000
   111 CB       5.0000  10.4550  17.9820   C.3      15 ARG19   0.0000
   112 CG       4.3180   9.7920  19.2190   C.3      15 ARG19   0.0000
   113 CD       3.7070  10.7720  20.1780   C.3      15 ARG19   0.0000
   114 NE       4.6650  11.8080  20.5360   N.2      15 ARG19   0.0000
   115 CZ       4.4980  12.7400  21.4800   C.ar     15 ARG19   0.0000
   116 NH1      3.4020  12.8110  22.2300   N.2      15 ARG19   0.0000
   117 NH2      5.4540  13.6320  21.6460   N.2      15 ARG19   0.0000
   118 N        5.7990   9.1920  14.9420   N.am     16 ASN20   0.0000
   119 CA       6.1100   9.5020  13.5720   C.3      16 ASN20   0.0000
   120 C        5.0960  10.3990  12.8650   C.2      16 ASN20   0.0000
   121 O        3.9100  10.4120  13.2070   O.2      16 ASN20   0.0000
   122 CB       6.4150   8.2360  12.7940   C.3      16 ASN20   0.0000
   123 CG       7.8360   7.7860  13.0010   C.2      16 ASN20   0.0000
   124 ND2      8.7360   8.7420  13.3220   N.am     16 ASN20   0.0000
   125 OD1      8.1380   6.6040  12.8820   O.2      16 ASN20   0.0000
   126 N        5.5980  11.1650  11.9060   N.am     17 ALA21   0.0000
   127 CA       4.7540  11.9960  11.0820   C.3      17 ALA21   0.0000
   128 C        3.7520  11.0830  10.3740   C.2      17 ALA21   0.0000
   129 O        4.1120   9.9410  10.0360   O.2      17 ALA21   0.0000
   130 CB       5.6090  12.7500  10.0790   C.3      17 ALA21   0.0000
   131 N        2.5250  11.5580  10.1500   N.am     18 ILE22   0.0000
   132 CA       1.5440  10.7790   9.3780   C.3      18 ILE22   0.0000
   133 C        1.6800  10.9100   7.8610   C.2      18 ILE22   0.0000
   134 O        1.9210  12.0210   7.3390   O.2      18 ILE22   0.0000
   135 CB       0.0800  11.0890   9.7630   C.3      18 ILE22   0.0000
   136 CG1     -0.2220  12.5870   9.7100   C.3      18 ILE22   0.0000
   137 CG2     -0.2530  10.5200  11.1040   C.3      18 ILE22   0.0000
   138 CD1     -1.2120  12.9300   8.6380   C.3      18 ILE22   0.0000
   139 N        1.4650   9.7840   7.1610   N.am     19 HIS23   0.0000
   140 CA       1.5270   9.7470   5.6860   C.3      19 HIS23   0.0000
   141 C        0.1680  10.0320   4.9670   C.2      19 HIS23   0.0000
   142 O       -0.1770  11.2060   4.7010   O.2      19 HIS23   0.0000
   143 CB       2.2310   8.4850   5.0910   C.3      19 HIS23   0.0000
   144 CG       3.0030   7.6380   6.0710   C.2      19 HIS23   0.0000
   145 CD2      3.6700   7.9450   7.2140   C.2      19 HIS23   0.0000
   146 ND1      3.1720   6.2780   5.8900   N.pl3    19 HIS23   0.0000
   147 CE1      3.8890   5.7810   6.8860   C.2      19 HIS23   0.0000
   148 NE2      4.1980   6.7700   7.7080   N.2      19 HIS23   0.0000
   149 N       -0.5810   8.9690   4.6320   N.am     20 ASP24   0.0000
   150 CA      -1.7250   9.0930   3.6880   C.3      20 ASP24   0.0000
   151 C       -2.6290   7.8350   3.5440   C.2      20 ASP24   0.0000
   152 O       -3.7720   7.7720   4.0430   O.2      20 ASP24   0.0000
   153 CB      -1.2260   9.5390   2.2890   C.3      20 ASP24   0.0000
   154 CG      -2.1080  10.6260   1.6560   C.ar     20 ASP24   0.0000
   155 OD1     -2.7000  11.4430   2.4120   O.co2    20 ASP24   0.0000
   156 OD2     -2.2090  10.6850   0.4010   O.co2    20 ASP24   0.0000
   157 OXT     -2.2600   6.8470   2.8930   O.3      20 ASP24   0.0000
   158 H1       3.0217   8.9930  36.2254   H         3 TYR7   0.0000
   159 H2       4.8292  10.4951  31.8600   H         3 TYR7   0.0000
   160 H3       5.3938   8.6052  35.6862   H         3 TYR7   0.0000
   161 H4       7.0086  10.1470  33.1785   H         3 TYR7   0.0000
   162 H5      -0.5362   7.9617  35.5737   H         4 ALA8   0.0000
   163 H6       0.8892   5.6082  34.9751   H         4 ALA8   0.0000
   164 H7      -2.2465   7.5648  39.7421   H         1 THR5   0.0000
   165 H8      -1.4478   9.1177  40.0780   H         1 THR5   0.0000
   166 H9      -3.2230   9.0130  40.0759   H         1 THR5   0.0000
   167 H10     -4.4386   8.8033  37.8010   H         1 THR5   0.0000
   168 H11      0.7029   3.8706  30.7737   H         8 ALA12   0.0000
   169 H12      1.8111   1.2870  29.7890   H         8 ALA12   0.0000
   170 H13     -0.8870   1.9080  31.0385   H         8 ALA12   0.0000
   171 H14     -0.3246   0.2908  30.5580   H         8 ALA12   0.0000
   172 H15      0.5204   1.1798  31.8457   H         8 ALA12   0.0000
   173 H16      0.2845   3.8970  28.3535   H         9 SER13   0.0000
   174 H17     -1.1464   2.4780  26.2688   H         9 SER13   0.0000
   175 H18      6.1430  12.0391   9.4502   H        17 ALA21   0.0000
   176 H19      4.9715  13.3770   9.4574   H        17 ALA21   0.0000
   177 H20      6.3257  13.3747  10.6100   H        17 ALA21   0.0000
   178 H21      2.2653  12.4681  10.5168   H        18 ILE22   0.0000
   179 H22      1.7163   9.7311   9.6189   H        18 ILE22   0.0000
   180 H23      0.9742   5.2202  25.4015   H         9 SER13   0.0000
   181 H24     -0.3981   3.1243  23.9012   H        10 GLY14   0.0000
   182 H25      0.9088   1.4712  22.6007   H        10 GLY14   0.0000
   183 H26      2.2579   1.7252  23.7311   H        10 GLY14   0.0000
   184 H27      1.6353   4.6170  23.8892   H        11 ARG15   0.0000
   185 H28      2.9438   5.4306  21.3429   H        11 ARG15   0.0000
   186 H29      1.5495   7.5689  21.6166   H        11 ARG15   0.0000
   187 H30      0.5334   6.6026  22.7103   H        11 ARG15   0.0000
   188 H31     -0.3880   5.4061  21.0069   H        11 ARG15   0.0000
   189 H32      1.1312   5.3496  20.0843   H        11 ARG15   0.0000
   190 H33      0.4065   8.0720  20.0758   H        11 ARG15   0.0000
   191 H34     -1.1230   7.2009  19.8221   H        11 ARG15   0.0000
   192 H35      1.1506   9.5686  16.9527   H        11 ARG15   0.0000
   193 H36      1.4434   7.7654  15.5627   H        11 ARG15   0.0000
   194 H37      4.4623   4.9204  23.5881   H        12 THR16   0.0000
   195 H38      4.8029   7.5567  24.9518   H        12 THR16   0.0000
   196 H39      6.2008   6.2451  26.5562   H        12 THR16   0.0000
   197 H40      3.4519   4.9877  26.0744   H        12 THR16   0.0000
   198 H41      4.3848   4.9183  27.5868   H        12 THR16   0.0000
   199 H42      3.7370   6.4716  27.0122   H        12 THR16   0.0000
   200 H43      6.7769   4.6008  24.9889   H        12 THR16   0.0000
   201 H44      6.1277   5.6821  22.4494   H        13 GLY17   0.0000
   202 H45      8.3253   5.6007  21.5755   H        13 GLY17   0.0000
   203 H46      8.8714   6.7175  22.8471   H        13 GLY17   0.0000
   204 H47     -0.3623   8.0617   5.0310   H        20 ASP24   0.0000
   205 H48     -2.3588   9.8940   4.0657   H        20 ASP24   0.0000
   206 H49     -1.2179   8.6716   1.6306   H        20 ASP24   0.0000
   207 H50     -0.2138   9.9281   2.3893   H        20 ASP24   0.0000
   208 H51     -1.4249   6.4831   3.2884   H        20 ASP24   0.0000
   209 H52     -1.0957   8.7238  36.5582   H         1 THR5   0.0000
   210 H53     -2.3868  10.0590  37.9781   H         1 THR5   0.0000
   211 H54     -2.8312   6.3617  37.3857   H         1 THR5   0.0000
   212 H55     -3.6322   6.7502  38.7838   H         1 THR5   0.0000
   213 H56     10.0422   7.4998  20.7671   H        14 ARG18   0.0000
   214 H57      9.0834   9.9386  19.8372   H        14 ARG18   0.0000
   215 H58     10.3750   9.4661  17.7243   H        14 ARG18   0.0000
   216 H59     10.6475   7.8212  18.3430   H        14 ARG18   0.0000
   217 H60     11.8118   8.7565  20.2783   H        14 ARG18   0.0000
   218 H61     11.5641  10.3918  19.6250   H        14 ARG18   0.0000
   219 H62     12.9238   8.3878  17.8784   H        14 ARG18   0.0000
   220 H63     13.8318   9.0398  19.2615   H        14 ARG18   0.0000
   221 H64     13.3120   9.5948  14.6597   H        14 ARG18   0.0000
   222 H65     13.6827  11.8650  14.9381   H        14 ARG18   0.0000
   223 H66      7.6765  10.6441  18.2520   H        15 ARG19   0.0000
   224 H67      5.7552   8.5335  17.3882   H        15 ARG19   0.0000
   225 H68      4.2345  10.6656  17.2366   H        15 ARG19   0.0000
   226 H69      5.4626  11.3879  18.3008   H        15 ARG19   0.0000
   227 H70      5.0687   9.2121  19.7539   H        15 ARG19   0.0000
   228 H71      3.5327   9.1275  18.8618   H        15 ARG19   0.0000
   229 H72      3.3975  10.2446  21.0791   H        15 ARG19   0.0000
   230 H73      2.8383  11.2343  19.7115   H        15 ARG19   0.0000
   231 H74      3.3162  13.5352  22.9360   H        15 ARG19   0.0000
   232 H75      5.3581  14.3528  22.3541   H        15 ARG19   0.0000
   233 H76      5.1831   8.4206  15.1782   H        16 ASN20   0.0000
   234 H77      7.0405  10.0671  13.5982   H        16 ASN20   0.0000
   235 H78      6.2556   8.4260  11.7336   H        16 ASN20   0.0000
   236 H79      5.7425   7.4465  13.1264   H        16 ASN20   0.0000
   237 H80      9.7085   8.4934  13.4727   H        16 ASN20   0.0000
   238 H81      8.4394   9.7085  13.4123   H        16 ASN20   0.0000
   239 H82      6.6006  11.1668  11.7477   H        17 ALA21   0.0000
   240 H83      4.2183  12.7063  11.7100   H        17 ALA21   0.0000
   241 H84     -0.5614  10.5998   9.0315   H        18 ILE22   0.0000
   242 H85      0.7050  13.1245   9.5157   H        18 ILE22   0.0000
   243 H86     -0.6264  12.8970  10.6724   H        18 ILE22   0.0000
   244 H87      0.4050  10.9533  11.8558   H        18 ILE22   0.0000
   245 H88     -1.2880  10.7525  11.3501   H        18 ILE22   0.0000
   246 H89     -0.1187   9.4395  11.0834   H        18 ILE22   0.0000
   247 H90     -2.1469  12.4039   8.8255   H        18 ILE22   0.0000
   248 H91     -1.3928  14.0039   8.6410   H        18 ILE22   0.0000
   249 H92     -0.8155  12.6314   7.6687   H        18 ILE22   0.0000
   250 H93      1.2524   8.9282   7.6636   H        19 HIS23   0.0000
   251 H94      2.1698  10.5821   5.4115   H        19 HIS23   0.0000
   252 H95      2.9247   8.8214   4.3219   H        19 HIS23   0.0000
   253 H96      1.4644   7.8573   4.6390   H        19 HIS23   0.0000
   254 H97      3.7694   8.9345   7.6578   H        19 HIS23   0.0000
   255 H98      2.8024   5.7417   5.1115   H        19 HIS23   0.0000
   256 H99      4.1751   4.7373   7.0075   H        19 HIS23   0.0000
   257 H100    -1.9047   5.8483  36.0795   H         4 ALA8   0.0000
   258 H101    -0.8731   4.4016  36.1528   H         4 ALA8   0.0000
   259 H102    -0.3885   5.8834  37.0082   H         4 ALA8   0.0000
   260 H103    -2.2205   6.7419  33.6917   H         5 ASP9   0.0000
   261 H104    -2.7635   4.4766  32.0094   H         5 ASP9   0.0000
   262 H105    -1.4765   4.8955  26.8904   H         9 SER13   0.0000
   263 H106    -1.2584   4.5896  25.1522   H         9 SER13   0.0000
   264 H107    -4.2025   6.1397  30.7207   H         5 ASP9   0.0000
   265 H108    -3.6652   7.3717  31.8852   H         5 ASP9   0.0000
   266 H109    -5.1775  10.4037  31.6766   H         2 THR6   0.0000
   267 H110    -4.8042  12.1394  31.5735   H         2 THR6   0.0000
   268 H111    -3.5089  10.9377  31.3717   H         2 THR6   0.0000
   269 H112    -5.2898  11.5203  35.0444   H         2 THR6   0.0000
   270 H113    -1.3574  10.5081  34.8915   H         3 TYR7   0.0000
   271 H114     0.3871   9.9369  32.7296   H         3 TYR7   0.0000
   272 H115     0.9490   9.9111  35.7011   H         3 TYR7   0.0000
   273 H116     0.9767  11.3404  34.6433   H         3 TYR7   0.0000
   274 H117     2.4626  10.9035  32.4170   H         3 TYR7   0.0000
   275 H118     1.3521   9.4816  25.2751   H         6 PHE10   0.0000
   276 H119     4.6581  10.0064  28.0222   H         6 PHE10   0.0000
   277 H120     3.7407  10.0793  25.6884   H         6 PHE10   0.0000
   278 H121     1.3793   6.3061  31.5065   H         7 ILE11   0.0000
   279 H122     3.6887   5.5846  30.0500   H         7 ILE11   0.0000
   280 H123     2.8824   5.8946  32.6560   H         7 ILE11   0.0000
   281 H124     5.3313   5.3624  31.2118   H         7 ILE11   0.0000
   282 H125     5.3984   4.9719  32.9455   H         7 ILE11   0.0000
   283 H126     3.6879   3.0109  32.4389   H         7 ILE11   0.0000
   284 H127     3.6022   3.9652  33.9370   H         7 ILE11   0.0000
   285 H128     2.1266   3.6568  32.9936   H         7 ILE11   0.0000
   286 H129     4.4760   7.1467  33.4710   H         7 ILE11   0.0000
   287 H130     5.9797   7.2849  32.5318   H         7 ILE11   0.0000
   288 H131     4.4089   7.5371  31.7374   H         7 ILE11   0.0000
   289 H132    -3.7426  10.5395  35.9670   H         2 THR6   0.0000
   290 H133    -4.3262   9.0848  33.5444   H         2 THR6   0.0000
   291 H134    -3.4443  11.9835  33.6606   H         2 THR6   0.0000
   292 H135    -1.1200   7.6265  31.4512   H         6 PHE10   0.0000
   293 H136    -0.5698   7.2134  28.6966   H         6 PHE10   0.0000
   294 H137     1.0987   8.7228  30.7112   H         6 PHE10   0.0000
   295 H138    -0.2988   9.3631  29.8171   H         6 PHE10   0.0000
   296 H139    -0.0830   8.8165  27.1533   H         6 PHE10   0.0000
   297 H140     3.1759   9.3263  29.8993   H         6 PHE10   0.0000
@<TRIPOS>BOND
     1     1     2    1
     2     2     3    1
     3     3     4    2
     4     2     5    1
     5     5     6    1
     6     5     7    1
     7     3     8   am
     8     8     9    1
     9     9    10    1
    10    10    11    2
    11     9    12    1
    12    12    13    1
    13    12    14    1
    14    10    15   am
    15    15    16    1
    16    16    17    1
    17    17    18    2
    18    16    19    1
    19    19    20    1
    20    20    21   ar
    21    20    22   ar
    22    21    23   ar
    23    22    24   ar
    24    23    25   ar
    25    24    25   ar
    26    25    26    1
    27    17    27   am
    28    27    28    1
    29    28    29    1
    30    29    30    2
    31    28    31    1
    32    29    32   am
    33    32    33    1
    34    33    34    1
    35    34    35    2
    36    33    36    1
    37    36    37    1
    38    37    38   ar
    39    37    39   ar
    40    34    40   am
    41    40    41    1
    42    41    42    1
    43    42    43    2
    44    41    44    1
    45    44    45    1
    46    45    46   ar
    47    45    47   ar
    48    46    48   ar
    49    47    49   ar
    50    48    50   ar
    51    49    50   ar
    52    42    51   am
    53    51    52    1
    54    52    53    1
    55    53    54    2
    56    52    55    1
    57    55    56    1
    58    55    57    1
    59    56    58    1
    60    53    59   am
    61    59    60    1
    62    60    61    1
    63    61    62    2
    64    60    63    1
    65    61    64   am
    66    64    65    1
    67    65    66    1
    68    66    67    2
    69    65    68    1
    70    68    69    1
    71    66    70   am
    72    70    71    1
    73    71    72    1
    74    72    73    2
    75    72    74   am
    76    74    75    1
    77    75    76    1
    78    76    77    2
    79    75    78    1
    80    78    79    1
    81    79    80    1
    82    80    81    1
    83    81    82   ar
    84    82    83   ar
    85    82    84   ar
    86    76    85   am
    87    85    86    1
    88    86    87    1
    89    87    88    2
    90    86    89    1
    91    89    90    1
    92    89    91    1
    93    87    92   am
    94    92    93    1
    95    93    94    1
    96    94    95    2
    97    94    96   am
    98    96    97    1
    99    97    98    1
   100    98    99    2
   101    97   100    1
   102   100   101    1
   103   101   102    1
   104   102   103    1
   105   103   104   ar
   106   104   105   ar
   107   104   106   ar
   108    98   107   am
   109   107   108    1
   110   108   109    1
   111   109   110    2
   112   108   111    1
   113   111   112    1
   114   112   113    1
   115   113   114    1
   116   114   115   ar
   117   115   116   ar
   118   115   117   ar
   119   109   118   am
   120   118   119    1
   121   119   120    1
   122   120   121    2
   123   119   122    1
   124   122   123    1
   125   123   124   am
   126   123   125    2
   127   120   126   am
   128   126   127    1
   129   127   128    1
   130   128   129    2
   131   127   130    1
   132   128   131   am
   133   131   132    1
   134   132   133    1
   135   133   134    2
   136   132   135    1
   137   135   136    1
   138   135   137    1
   139   136   138    1
   140   133   139   am
   141   139   140    1
   142   140   141    1
   143   141   142    2
   144   140   143    1
   145   143   144    1
   146   144   145    2
   147   144   146    1
   148   146   147    1
   149   145   148    1
   150   147   148    2
   151   141   149   am
   152   149   150    1
   153   150   151    1
   154   151   152    2
   155   150   153    1
   156   153   154    1
   157   154   155   ar
   158   154   156   ar
   159   151   157    1
   160    22   158    1
   161    23   159    1
   162    24   160    1
   163    26   161    1
   164    27   162    1
   165    28   163    1
   166     6   164    1
   167     6   165    1
   168     6   166    1
   169     2   167    1
   170    59   168    1
   171    60   169    1
   172    63   170    1
   173    63   171    1
   174    63   172    1
   175    64   173    1
   176    65   174    1
   177   130   175    1
   178   130   176    1
   179   130   177    1
   180   131   178    1
   181   132   179    1
   182    69   180    1
   183    70   181    1
   184    71   182    1
   185    71   183    1
   186    74   184    1
   187    75   185    1
   188    78   186    1
   189    78   187    1
   190    79   188    1
   191    79   189    1
   192    80   190    1
   193    80   191    1
   194    83   192    1
   195    84   193    1
   196    85   194    1
   197    86   195    1
   198    89   196    1
   199    90   197    1
   200    90   198    1
   201    90   199    1
   202    91   200    1
   203    92   201    1
   204    93   202    1
   205    93   203    1
   206   149   204    1
   207   150   205    1
   208   153   206    1
   209   153   207    1
   210   157   208    1
   211     7   209    1
   212     5   210    1
   213     1   211    1
   214     1   212    1
   215    96   213    1
   216    97   214    1
   217   100   215    1
   218   100   216    1
   219   101   217    1
   220   101   218    1
   221   102   219    1
   222   102   220    1
   223   105   221    1
   224   106   222    1
   225   107   223    1
   226   108   224    1
   227   111   225    1
   228   111   226    1
   229   112   227    1
   230   112   228    1
   231   113   229    1
   232   113   230    1
   233   116   231    1
   234   117   232    1
   235   118   233    1
   236   119   234    1
   237   122   235    1
   238   122   236    1
   239   124   237    1
   240   124   238    1
   241   126   239    1
   242   127   240    1
   243   135   241    1
   244   136   242    1
   245   136   243    1
   246   137   244    1
   247   137   245    1
   248   137   246    1
   249   138   247    1
   250   138   248    1
   251   138   249    1
   252   139   250    1
   253   140   251    1
   254   143   252    1
   255   143   253    1
   256   145   254    1
   257   146   255    1
   258   147   256    1
   259    31   257    1
   260    31   258    1
   261    31   259    1
   262    32   260    1
   263    33   261    1
   264    68   262    1
   265    68   263    1
   266    36   264    1
   267    36   265    1
   268    13   266    1
   269    13   267    1
   270    13   268    1
   271    14   269    1
   272    15   270    1
   273    16   271    1
   274    19   272    1
   275    19   273    1
   276    21   274    1
   277    48   275    1
   278    49   276    1
   279    50   277    1
   280    51   278    1
   281    52   279    1
   282    55   280    1
   283    56   281    1
   284    56   282    1
   285    57   283    1
   286    57   284    1
   287    57   285    1
   288    58   286    1
   289    58   287    1
   290    58   288    1
   291     8   289    1
   292     9   290    1
   293    12   291    1
   294    40   292    1
   295    41   293    1
   296    44   294    1
   297    44   295    1
   298    46   296    1
   299    47   297    1
@<TRIPOS>SUBSTRUCTURE
     1 THR5        1 GROUP             0 J     THR     0  
     2 THR6        8 GROUP             0 J     THR     0  
     3 TYR7       15 GROUP             0 J     TYR     0  
     4 ALA8       27 GROUP             0 J     ALA     0  
     5 ASP9       32 GROUP             0 J     ASP     0  
     6 PHE10      40 GROUP             0 J     PHE     0  
     7 ILE11      51 GROUP             0 J     ILE     0  
     8 ALA12      59 GROUP             0 J     ALA     0  
     9 SER13      64 GROUP             0 J     SER     0  
    10 GLY14      70 GROUP             0 J     GLY     0  
    11 ARG15      74 GROUP             0 J     ARG     0  
    12 THR16      85 GROUP             0 J     THR     0  
    13 GLY17      92 GROUP             0 J     GLY     0  
    14 ARG18      96 GROUP             0 J     ARG     0  
    15 ARG19     107 GROUP             0 J     ARG     0  
    16 ASN20     118 GROUP             0 J     ASN     0  
    17 ALA21     126 GROUP             0 J     ALA     0  
    18 ILE22     131 GROUP             0 J     ILE     0  
    19 HIS23     139 GROUP             0 J     HIS     0  
    20 ASP24     149 GROUP             0 J     ASP     0  
@<TRIPOS>SET
CCDC_LIGAND STATIC ATOMS
297 1 2 3 4 5 6 7 8 9 \
10 11 12 13 14 15 16 17 18 19 \
20 21 22 23 24 25 26 27 28 29 \
30 31 32 33 34 35 36 37 38 39 \
40 41 42 43 44 45 46 47 48 49 \
50 51 52 53 54 55 56 57 58 59 \
60 61 62 63 64 65 66 67 68 69 \
70 71 72 73 74 75 76 77 78 79 \
80 81 82 83 84 85 86 87 88 89 \
90 91 92 93 94 95 96 97 98 99 \
100 101 102 103 104 105 106 107 108 109 \
110 111 112 113 114 115 116 117 118 119 \
120 121 122 123 124 125 126 127 128 129 \
130 131 132 133 134 135 136 137 138 139 \
140 141 142 143 144 145 146 147 148 149 \
150 151 152 153 154 155 156 157 158 159 \
160 161 162 163 164 165 166 167 168 169 \
170 171 172 173 174 175 176 177 178 179 \
180 181 182 183 184 185 186 187 188 189 \
190 191 192 193 194 195 196 197 198 199 \
200 201 202 203 204 205 206 207 208 209 \
210 211 212 213 214 215 216 217 218 219 \
220 221 222 223 224 225 226 227 228 229 \
230 231 232 233 234 235 236 237 238 239 \
240 241 242 243 244 245 246 247 248 249 \
250 251 252 253 254 255 256 257 258 259 \
260 261 262 263 264 265 266 267 268 269 \
270 271 272 273 274 275 276 277 278 279 \
280 281 282 283 284 285 286 287 288 289 \
290 291 292 293 294 295 296 297 
