@<TRIPOS>MOLECULE
E:XFE351
    31    33     1     0     1
SMALL
NO_CHARGES
****
Generated from the CSD

@<TRIPOS>ATOM
     1 C1      -3.2560 -14.5520  18.5350   C.3       1 XFE351   0.0000
     2 C2      -4.4760 -15.4540  18.4470   C.3       1 XFE351   0.0000
     3 C3      -3.9320 -16.7500  17.8160   C.3       1 XFE351   0.0000
     4 N4      -2.6440 -16.3940  17.1760   N.3       1 XFE351   0.0000
     5 C5      -2.3120 -14.9780  17.4120   C.3       1 XFE351   0.0000
     6 C6      -2.3430 -16.8580  15.8710   C.ar      1 XFE351   0.0000
     7 N7      -1.6370 -16.0550  15.0330   N.ar      1 XFE351   0.0000
     8 C8      -1.3480 -16.4120  13.7790   C.ar      1 XFE351   0.0000
     9 N9      -1.7140 -17.6010  13.2880   N.ar      1 XFE351   0.0000
    10 C10     -2.7390 -18.1180  15.3790   C.ar      1 XFE351   0.0000
    11 C11     -2.4040 -18.4830  14.0650   C.ar      1 XFE351   0.0000
    12 N12     -2.8850 -19.7360  13.8160   N.pl3     1 XFE351   0.0000
    13 C13     -3.5270 -20.2710  14.8940   C.2       1 XFE351   0.0000
    14 C14     -3.4700 -19.3100  15.8800   C.2       1 XFE351   0.0000
    15 C15     -4.0570 -19.4950  17.2660   C.3       1 XFE351   0.0000
    16 N16     -2.6210 -14.7870  19.8150   N.3       1 XFE351   0.0000
    17 H1      -2.3435 -15.7611  19.8813   H         1 XFE351   0.0000
    18 H2      -1.8008 -14.1951  19.8995   H         1 XFE351   0.0000
    19 H3      -0.8015 -15.7187  13.1413   H         1 XFE351   0.0000
    20 H4      -4.7975 -18.7188  17.4532   H         1 XFE351   0.0000
    21 H5      -4.5317 -20.4729  17.3316   H         1 XFE351   0.0000
    22 H6      -3.2633 -19.4262  18.0085   H         1 XFE351   0.0000
    23 H7      -1.2729 -14.8714  17.7200   H         1 XFE351   0.0000
    24 H8      -2.4873 -14.3858  16.5150   H         1 XFE351   0.0000
    25 H9      -4.6307 -17.1287  17.0715   H         1 XFE351   0.0000
    26 H10     -3.7749 -17.5059  18.5840   H         1 XFE351   0.0000
    27 H11     -5.2433 -15.0079  17.8159   H         1 XFE351   0.0000
    28 H12     -4.8872 -15.6476  19.4366   H         1 XFE351   0.0000
    29 H13     -3.5386 -13.5057  18.4284   H         1 XFE351   0.0000
    30 H14     -3.9893 -21.2547  14.9615   H         1 XFE351   0.0000
    31 H15     -2.7770 -20.2158  12.9281   H         1 XFE351   0.0000
@<TRIPOS>BOND
     1     1     2    1
     2     2     3    1
     3     3     4    1
     4     1     5    1
     5     4     5    1
     6     4     6    1
     7     6     7   ar
     8     7     8   ar
     9     8     9   ar
    10     6    10   ar
    11     9    11   ar
    12    10    11   ar
    13    11    12    1
    14    12    13    1
    15    10    14    1
    16    13    14    2
    17    14    15    1
    18     1    16    1
    19    16    17    1
    20    16    18    1
    21     8    19    1
    22    15    20    1
    23    15    21    1
    24    15    22    1
    25     5    23    1
    26     5    24    1
    27     3    25    1
    28     3    26    1
    29     2    27    1
    30     2    28    1
    31     1    29    1
    32    13    30    1
    33    12    31    1
@<TRIPOS>SUBSTRUCTURE
     1 XFE351      1 GROUP             0 E     XFE     0  
@<TRIPOS>SET
CCDC_LIGAND STATIC ATOMS
31 1 2 3 4 5 6 7 8 9 \
10 11 12 13 14 15 16 17 18 19 \
20 21 22 23 24 25 26 27 28 29 \
30 31 
