@<TRIPOS>MOLECULE
A:XFE351
    31    33     1     0     1
SMALL
NO_CHARGES
****
Generated from the CSD

@<TRIPOS>ATOM
     1 C1      15.9820  14.2380  14.3730   C.3       1 XFE351   0.0000
     2 C2      16.6720  13.5410  15.5420   C.3       1 XFE351   0.0000
     3 C3      18.1660  13.8180  15.4410   C.3       1 XFE351   0.0000
     4 N4      18.2760  14.9270  14.4630   N.pl3     1 XFE351   0.0000
     5 C5      16.9630  15.3250  13.9210   C.3       1 XFE351   0.0000
     6 C6      19.3080  15.8820  14.7100   C.ar      1 XFE351   0.0000
     7 N7      20.1990  15.5920  15.6890   N.ar      1 XFE351   0.0000
     8 C8      21.2470  16.3890  16.0300   C.ar      1 XFE351   0.0000
     9 N9      21.4860  17.5680  15.4410   N.ar      1 XFE351   0.0000
    10 C10     19.5440  17.1070  14.0420   C.ar      1 XFE351   0.0000
    11 C11     20.6430  17.9380  14.4290   C.ar      1 XFE351   0.0000
    12 N12     20.6570  19.0510  13.6620   N.pl3     1 XFE351   0.0000
    13 C13     19.6320  19.0330  12.7630   C.2       1 XFE351   0.0000
    14 C14     18.9360  17.8850  12.9640   C.2       1 XFE351   0.0000
    15 C15     17.7390  17.5150  12.1420   C.3       1 XFE351   0.0000
    16 N16     14.7000  14.8250  14.7820   N.3       1 XFE351   0.0000
    17 H1      16.8759  17.3889  12.7939   H         1 XFE351   0.0000
    18 H2      17.5363  18.3047  11.4200   H         1 XFE351   0.0000
    19 H3      17.9349  16.5826  11.6147   H         1 XFE351   0.0000
    20 H4      21.3383  19.7989  13.7442   H         1 XFE351   0.0000
    21 H5      19.4122  19.7986  12.0204   H         1 XFE351   0.0000
    22 H6      16.6658  16.2942  14.3189   H         1 XFE351   0.0000
    23 H7      17.0002  15.3749  12.8338   H         1 XFE351   0.0000
    24 H8      21.9215  16.0538  16.8165   H         1 XFE351   0.0000
    25 H9      14.8593  15.5077  15.5160   H         1 XFE351   0.0000
    26 H10     14.2666  15.2800  13.9849   H         1 XFE351   0.0000
    27 H11     18.6970  12.9368  15.0842   H         1 XFE351   0.0000
    28 H12     18.5677  14.1171  16.4080   H         1 XFE351   0.0000
    29 H13     16.4910  12.4683  15.4914   H         1 XFE351   0.0000
    30 H14     16.2870  13.9301  16.4834   H         1 XFE351   0.0000
    31 H15     15.8206  13.5276  13.5636   H         1 XFE351   0.0000
@<TRIPOS>BOND
     1     1     2    1
     2     2     3    1
     3     3     4    1
     4     1     5    1
     5     4     5    1
     6     4     6    1
     7     6     7   ar
     8     7     8   ar
     9     8     9   ar
    10     6    10   ar
    11     9    11   ar
    12    10    11   ar
    13    11    12    1
    14    12    13    1
    15    10    14    1
    16    13    14    2
    17    14    15    1
    18     1    16    1
    19    15    17    1
    20    15    18    1
    21    15    19    1
    22    12    20    1
    23    13    21    1
    24     5    22    1
    25     5    23    1
    26     8    24    1
    27    16    25    1
    28    16    26    1
    29     3    27    1
    30     3    28    1
    31     2    29    1
    32     2    30    1
    33     1    31    1
@<TRIPOS>SUBSTRUCTURE
     1 XFE351      1 GROUP             0 A     XFE     0  
@<TRIPOS>SET
CCDC_LIGAND STATIC ATOMS
31 1 2 3 4 5 6 7 8 9 \
10 11 12 13 14 15 16 17 18 19 \
20 21 22 23 24 25 26 27 28 29 \
30 31 
