@<TRIPOS>MOLECULE
S:ARG1
   169   172    12     0     1
SMALL
NO_CHARGES
****
Generated from the CSD

@<TRIPOS>ATOM
     1 N      133.0890 152.7330  89.2800   N.3       1 ARG1   0.0000
     2 CA     134.2730 152.5880  88.4320   C.3       1 ARG1   0.0000
     3 C      134.5310 151.1710  87.8500   C.2       1 ARG1   0.0000
     4 O      134.8000 151.0800  86.6520   O.2       1 ARG1   0.0000
     5 CB     135.5230 153.0810  89.1830   C.3       1 ARG1   0.0000
     6 N      134.4830 150.0510  88.6600   N.am      2 PRO2   0.0000
     7 CA     134.7070 148.7380  88.0330   C.3       2 PRO2   0.0000
     8 C      133.5680 148.3020  87.1220   C.2       2 PRO2   0.0000
     9 O      133.8010 147.9220  85.9700   O.2       2 PRO2   0.0000
    10 CB     134.8540 147.7890  89.2320   C.3       2 PRO2   0.0000
    11 CG     135.1180 148.6670  90.3950   C.3       2 PRO2   0.0000
    12 CD     134.2980 149.8680  90.1150   C.3       2 PRO2   0.0000
    13 N      132.3390 148.3610  87.6260   N.am      3 LYS3   0.0000
    14 CA     131.1680 147.9140  86.8860   C.3       3 LYS3   0.0000
    15 C      129.9350 148.5510  87.5120   C.2       3 LYS3   0.0000
    16 O      129.9300 148.8450  88.7130   O.2       3 LYS3   0.0000
    17 CB     131.0520 146.3790  86.9010   C.3       3 LYS3   0.0000
    18 N      128.8800 148.7870  86.7290   N.am      4 PRO4   0.0000
    19 CA     127.6270 149.2930  87.3000   C.3       4 PRO4   0.0000
    20 C      126.7170 148.2240  87.8850   C.2       4 PRO4   0.0000
    21 O      125.5580 148.5270  88.1830   O.2       4 PRO4   0.0000
    22 CB     126.9570 149.9710  86.0940   C.3       4 PRO4   0.0000
    23 CG     127.4530 149.2220  84.9240   C.3       4 PRO4   0.0000
    24 CD     128.8470 148.7710  85.2540   C.3       4 PRO4   0.0000
    25 N      127.1950 146.9900  88.0590   N.am      5 GLN5   0.0000
    26 CA     126.3770 145.9190  88.6110   C.3       5 GLN5   0.0000
    27 C      127.0470 145.2030  89.7770   C.2       5 GLN5   0.0000
    28 O      126.5400 144.1680  90.2200   O.2       5 GLN5   0.0000
    29 CB     126.0180 144.8980  87.5250   C.3       5 GLN5   0.0000
    30 CG     124.9410 145.3550  86.5570   C.3       5 GLN5   0.0000
    31 CD     125.5150 145.8820  85.2580   C.2       5 GLN5   0.0000
    32 OE1    126.6590 145.5910  84.9100   O.2       5 GLN5   0.0000
    33 NE2    124.7200 146.6570  84.5300   N.am      5 GLN5   0.0000
    34 N      128.1690 145.7110  90.2790   N.am      6 GLN6   0.0000
    35 CA     128.8560 145.0730  91.3900   C.3       6 GLN6   0.0000
    36 C      128.1030 145.3270  92.6950   C.2       6 GLN6   0.0000
    37 O      127.2690 146.2310  92.7920   O.2       6 GLN6   0.0000
    38 CB     130.2940 145.5830  91.4870   C.3       6 GLN6   0.0000
    39 CG     131.2870 144.5740  92.0420   C.3       6 GLN6   0.0000
    40 CD     132.6870 144.7800  91.5110   C.2       6 GLN6   0.0000
    41 OE1    132.8830 145.4190  90.4800   O.2       6 GLN6   0.0000
    42 NE2    133.6720 144.2350  92.2150   N.am      6 GLN6   0.0000
    43 N      128.3970 144.5060  93.7050   N.am      7 PHE7   0.0000
    44 CA     127.7050 144.5860  94.9860   C.3       7 PHE7   0.0000
    45 C      128.4360 145.4290  96.0290   C.2       7 PHE7   0.0000
    46 O      127.7750 146.1410  96.7950   O.2       7 PHE7   0.0000
    47 CB     127.4570 143.1810  95.5460   C.3       7 PHE7   0.0000
    48 CG     126.7400 143.1780  96.8650   C.ar      7 PHE7   0.0000
    49 CD1    125.5550 143.8820  97.0280   C.ar      7 PHE7   0.0000
    50 CD2    127.2570 142.4870  97.9470   C.ar      7 PHE7   0.0000
    51 CE1    124.9040 143.9000  98.2430   C.ar      7 PHE7   0.0000
    52 CE2    126.6050 142.4920  99.1630   C.ar      7 PHE7   0.0000
    53 CZ     125.4270 143.1990  99.3110   C.ar      7 PHE7   0.0000
    54 N      129.7740 145.3650  96.0680   N.am      8 PHE8   0.0000
    55 CA     130.6370 146.0880  97.0150   C.3       8 PHE8   0.0000
    56 C      130.2960 145.7390  98.4690   C.2       8 PHE8   0.0000
    57 O      129.7690 146.5510  99.2300   O.2       8 PHE8   0.0000
    58 CB     130.5840 147.6090  96.8090   C.3       8 PHE8   0.0000
    59 CG     130.7560 148.0440  95.3880   C.ar      8 PHE8   0.0000
    60 CD1    131.9000 147.7170  94.6810   C.ar      8 PHE8   0.0000
    61 CD2    129.7780 148.7990  94.7640   C.ar      8 PHE8   0.0000
    62 CE1    132.0600 148.1290  93.3720   C.ar      8 PHE8   0.0000
    63 CE2    129.9300 149.2160  93.4590   C.ar      8 PHE8   0.0000
    64 CZ     131.0720 148.8800  92.7610   C.ar      8 PHE8   0.0000
    65 N      130.5980 144.4940  98.8280   N.am      9 GLY9   0.0000
    66 CA     130.4620 144.0800 100.2120   C.3       9 GLY9   0.0000
    67 C      131.5280 144.6960 101.1000   C.2       9 GLY9   0.0000
    68 O      132.6390 144.9970 100.6650   O.2       9 GLY9   0.0000
    69 N      131.1810 144.8790 102.3730   N.am     10 LEU10   0.0000
    70 CA     132.0610 145.5050 103.3510   C.3      10 LEU10   0.0000
    71 C      132.1600 144.6300 104.5950   C.2      10 LEU10   0.0000
    72 O      131.3040 143.7810 104.8550   O.2      10 LEU10   0.0000
    73 CB     131.5660 146.9070 103.7340   C.3      10 LEU10   0.0000
    74 CG     131.6090 147.9840 102.6500   C.3      10 LEU10   0.0000
    75 CD1    131.0610 149.2930 103.1840   C.3      10 LEU10   0.0000
    76 CD2    133.0220 148.1680 102.1340   C.3      10 LEU10   0.0000
    77 N      133.2210 144.8450 105.3690   N.am     11 MET11   0.0000
    78 CA     133.4100 144.1240 106.6250   C.3      11 MET11   0.0000
    79 C      132.6620 144.8000 107.7660   C.2      11 MET11   0.0000
    80 O      132.5530 144.2510 108.8620   O.2      11 MET11   0.0000
    81 CB     134.8950 144.0160 106.9760   C.3      11 MET11   0.0000
    82 CG     135.5790 142.7710 106.4420   C.3      11 MET11   0.0000
    83 SD     137.3550 142.7700 106.7430   S.3      11 MET11   0.0000
    84 CE     137.8650 141.3650 105.7600   C.3      11 MET11   0.0000
    85 N      132.1230 145.9990 107.5690   N.am     12 NH212   0.0000
    86 H1     128.5531 146.5609  89.8785   H         6 GLN6   0.0000
    87 H2     125.6708 143.9894  88.0148   H         5 GLN5   0.0000
    88 H3     126.9186 144.6804  86.9527   H         5 GLN5   0.0000
    89 H4     125.0509 147.0390  83.6498   H         5 GLN5   0.0000
    90 H5     123.7813 146.8675  84.8536   H         5 GLN5   0.0000
    91 H6     134.1340 153.2553  87.5827   H         1 ARG1   0.0000
    92 H7     125.4504 146.3594  88.9762   H         5 GLN5   0.0000
    93 H8     135.4076 142.7128 105.3681   H        11 MET11   0.0000
    94 H9     135.1430 141.8988 106.9269   H        11 MET11   0.0000
    95 H10    133.0128 143.1172 106.5046   H        11 MET11   0.0000
    96 H11    134.9890 144.0169 108.0609   H        11 MET11   0.0000
    97 H12    135.4054 144.8866 106.5667   H        11 MET11   0.0000
    98 H13    133.1672 152.1123  90.0792   H         1 ARG1   0.0000
    99 H14    133.0194 153.6928  89.6026   H         1 ARG1   0.0000
   100 H15    128.8818 143.9994  91.2095   H         6 GLN6   0.0000
   101 H16    124.3602 146.1463  87.0287   H         5 GLN5   0.0000
   102 H17    124.2904 144.5106  86.3343   H         5 GLN5   0.0000
   103 H18    137.6004 141.5361 104.7176   H        11 MET11   0.0000
   104 H19    138.9429 141.2351 105.8443   H        11 MET11   0.0000
   105 H20    137.3621 140.4686 106.1198   H        11 MET11   0.0000
   106 H21    131.6219 146.4600 108.3217   H        12 NH212   0.0000
   107 H22    132.2125 146.4535 106.6659   H        12 NH212   0.0000
   108 H23    132.9618 147.8631  92.8225   H         8 PHE8   0.0000
   109 H24    128.8758 149.0673  95.3117   H         8 PHE8   0.0000
   110 H25    130.9663 146.0315  87.9295   H         3 LYS3   0.0000
   111 H26    130.1686 146.0762  86.3407   H         3 LYS3   0.0000
   112 H27    131.9390 145.9434  86.4434   H         3 LYS3   0.0000
   113 H28    132.6813 147.1295  95.1609   H         8 PHE8   0.0000
   114 H29    130.5456 142.9954 100.2639   H         9 GLY9   0.0000
   115 H30    129.4822 144.3864 100.5755   H         9 GLY9   0.0000
   116 H31    130.2630 144.5686 102.6750   H        10 LEU10   0.0000
   117 H32    127.2476 151.0186  86.0314   H         4 PRO4   0.0000
   118 H33    125.8728 149.8987  86.1655   H         4 PRO4   0.0000
   119 H34    127.0184 141.9393 100.0053   H         7 PHE7   0.0000
   120 H35    133.2510 149.6952  90.3597   H         2 PRO2   0.0000
   121 H36    134.6627 150.7313  90.6695   H         2 PRO2   0.0000
   122 H37    126.7346 145.0474  94.8092   H         7 PHE7   0.0000
   123 H38    129.1219 143.8069  93.5782   H         7 PHE7   0.0000
   124 H39    130.2306 144.7672  95.3866   H         8 PHE8   0.0000
   125 H40    131.2534 148.2510  85.8540   H         3 LYS3   0.0000
   126 H41    132.2126 148.7318  88.5623   H         3 LYS3   0.0000
   127 H42    123.9805 144.4652  98.3599   H         7 PHE7   0.0000
   128 H43    128.1884 141.9334  97.8375   H         7 PHE7   0.0000
   129 H44    125.1339 144.4275  96.1848   H         7 PHE7   0.0000
   130 H45    133.3796 147.2297 101.7124   H        10 LEU10   0.0000
   131 H46    133.0299 148.9382 101.3642   H        10 LEU10   0.0000
   132 H47    133.6719 148.4683 102.9546   H        10 LEU10   0.0000
   133 H48    130.9804 147.6617 101.8212   H        10 LEU10   0.0000
   134 H49    134.6337 144.3397  91.9077   H         6 GLN6   0.0000
   135 H50    133.4633 143.7136  93.0605   H         6 GLN6   0.0000
   136 H51    131.3770 148.0614  97.4026   H         8 PHE8   0.0000
   137 H52    129.6177 147.9674  97.1608   H         8 PHE8   0.0000
   138 H53    129.0311 147.7678  84.8723   H         4 PRO4   0.0000
   139 H54    129.5850 149.4574  84.8416   H         4 PRO4   0.0000
   140 H55    128.1561 146.7924  87.7992   H         5 GLN5   0.0000
   141 H56    131.6615 149.6190 104.0320   H        10 LEU10   0.0000
   142 H57    131.0985 150.0487 102.4008   H        10 LEU10   0.0000
   143 H58    130.0294 149.1515 103.5028   H        10 LEU10   0.0000
   144 H59    136.1746 148.9231  90.4574   H         2 PRO2   0.0000
   145 H60    134.8048 148.1894  91.3222   H         2 PRO2   0.0000
   146 H61    124.9113 143.2032 100.2701   H         7 PHE7   0.0000
   147 H62    128.4190 142.6873  95.6759   H         7 PHE7   0.0000
   148 H63    126.8576 142.6246  94.8270   H         7 PHE7   0.0000
   149 H64    130.9552 143.5730  91.7702   H         6 GLN6   0.0000
   150 H65    131.3087 144.6672  93.1268   H         6 GLN6   0.0000
   151 H66    130.3011 146.4583  92.1349   H         6 GLN6   0.0000
   152 H67    130.6215 145.8680  90.4883   H         6 GLN6   0.0000
   153 H68    135.6850 147.1027  89.0757   H         2 PRO2   0.0000
   154 H69    133.9374 147.2207  89.3833   H         2 PRO2   0.0000
   155 H70    133.9155 145.5263 105.0796   H        11 MET11   0.0000
   156 H71    133.0540 145.5968 102.9134   H        10 LEU10   0.0000
   157 H72    132.1776 147.2545 104.5653   H        10 LEU10   0.0000
   158 H73    130.5313 146.8113 104.0597   H        10 LEU10   0.0000
   159 H74    129.1516 149.8085  92.9805   H         8 PHE8   0.0000
   160 H75    131.6621 145.7685  96.8334   H         8 PHE8   0.0000
   161 H76    127.4656 149.8652  84.0454   H         4 PRO4   0.0000
   162 H77    126.8156 148.3598  84.7336   H         4 PRO4   0.0000
   163 H78    127.8486 150.0396  88.0612   H         4 PRO4   0.0000
   164 H79    130.9245 143.8317  98.1316   H         9 GLY9   0.0000
   165 H80    131.1954 149.2060  91.7293   H         8 PHE8   0.0000
   166 H81    135.6576 152.4925  90.0894   H         1 ARG1   0.0000
   167 H82    136.3979 152.9691  88.5443   H         1 ARG1   0.0000
   168 H83    135.3978 154.1302  89.4467   H         1 ARG1   0.0000
   169 H84    135.6378 148.7581  87.4682   H         2 PRO2   0.0000
@<TRIPOS>BOND
     1     1     2    1
     2     2     3    1
     3     3     4    2
     4     2     5    1
     5     3     6   am
     6     6     7    1
     7     7     8    1
     8     8     9    2
     9     7    10    1
    10    10    11    1
    11     6    12    1
    12    11    12    1
    13     8    13   am
    14    13    14    1
    15    14    15    1
    16    15    16    2
    17    14    17    1
    18    15    18   am
    19    18    19    1
    20    19    20    1
    21    20    21    2
    22    19    22    1
    23    22    23    1
    24    18    24    1
    25    23    24    1
    26    20    25   am
    27    25    26    1
    28    26    27    1
    29    27    28    2
    30    26    29    1
    31    29    30    1
    32    30    31    1
    33    31    32    2
    34    31    33   am
    35    27    34   am
    36    34    35    1
    37    35    36    1
    38    36    37    2
    39    35    38    1
    40    38    39    1
    41    39    40    1
    42    40    41    2
    43    40    42   am
    44    36    43   am
    45    43    44    1
    46    44    45    1
    47    45    46    2
    48    44    47    1
    49    47    48    1
    50    48    49   ar
    51    48    50   ar
    52    49    51   ar
    53    50    52   ar
    54    51    53   ar
    55    52    53   ar
    56    45    54   am
    57    54    55    1
    58    55    56    1
    59    56    57    2
    60    55    58    1
    61    58    59    1
    62    59    60   ar
    63    59    61   ar
    64    60    62   ar
    65    61    63   ar
    66    62    64   ar
    67    63    64   ar
    68    56    65   am
    69    65    66    1
    70    66    67    1
    71    67    68    2
    72    67    69   am
    73    69    70    1
    74    70    71    1
    75    71    72    2
    76    70    73    1
    77    73    74    1
    78    74    75    1
    79    74    76    1
    80    71    77   am
    81    77    78    1
    82    78    79    1
    83    79    80    2
    84    78    81    1
    85    81    82    1
    86    82    83    1
    87    83    84    1
    88    79    85   am
    89    34    86    1
    90    29    87    1
    91    29    88    1
    92    33    89    1
    93    33    90    1
    94     2    91    1
    95    26    92    1
    96    82    93    1
    97    82    94    1
    98    78    95    1
    99    81    96    1
   100    81    97    1
   101     1    98    1
   102     1    99    1
   103    35   100    1
   104    30   101    1
   105    30   102    1
   106    84   103    1
   107    84   104    1
   108    84   105    1
   109    85   106    1
   110    85   107    1
   111    62   108    1
   112    61   109    1
   113    17   110    1
   114    17   111    1
   115    17   112    1
   116    60   113    1
   117    66   114    1
   118    66   115    1
   119    69   116    1
   120    22   117    1
   121    22   118    1
   122    52   119    1
   123    12   120    1
   124    12   121    1
   125    44   122    1
   126    43   123    1
   127    54   124    1
   128    14   125    1
   129    13   126    1
   130    51   127    1
   131    50   128    1
   132    49   129    1
   133    76   130    1
   134    76   131    1
   135    76   132    1
   136    74   133    1
   137    42   134    1
   138    42   135    1
   139    58   136    1
   140    58   137    1
   141    24   138    1
   142    24   139    1
   143    25   140    1
   144    75   141    1
   145    75   142    1
   146    75   143    1
   147    11   144    1
   148    11   145    1
   149    53   146    1
   150    47   147    1
   151    47   148    1
   152    39   149    1
   153    39   150    1
   154    38   151    1
   155    38   152    1
   156    10   153    1
   157    10   154    1
   158    77   155    1
   159    70   156    1
   160    73   157    1
   161    73   158    1
   162    63   159    1
   163    55   160    1
   164    23   161    1
   165    23   162    1
   166    19   163    1
   167    65   164    1
   168    64   165    1
   169     5   166    1
   170     5   167    1
   171     5   168    1
   172     7   169    1
@<TRIPOS>SUBSTRUCTURE
     1 ARG1        1 GROUP             0 S     ARG     0  
     2 PRO2        6 GROUP             0 S     PRO     0  
     3 LYS3       13 GROUP             0 S     LYS     0  
     4 PRO4       18 GROUP             0 S     PRO     0  
     5 GLN5       25 GROUP             0 S     GLN     0  
     6 GLN6       34 GROUP             0 S     GLN     0  
     7 PHE7       43 GROUP             0 S     PHE     0  
     8 PHE8       54 GROUP             0 S     PHE     0  
     9 GLY9       65 GROUP             0 S     GLY     0  
    10 LEU10      69 GROUP             0 S     LEU     0  
    11 MET11      77 GROUP             0 S     MET     0  
    12 NH212      85 GROUP             0 S     NH2     0  
@<TRIPOS>SET
CCDC_LIGAND STATIC ATOMS
169 1 2 3 4 5 6 7 8 9 \
10 11 12 13 14 15 16 17 18 19 \
20 21 22 23 24 25 26 27 28 29 \
30 31 32 33 34 35 36 37 38 39 \
40 41 42 43 44 45 46 47 48 49 \
50 51 52 53 54 55 56 57 58 59 \
60 61 62 63 64 65 66 67 68 69 \
70 71 72 73 74 75 76 77 78 79 \
80 81 82 83 84 85 86 87 88 89 \
90 91 92 93 94 95 96 97 98 99 \
100 101 102 103 104 105 106 107 108 109 \
110 111 112 113 114 115 116 117 118 119 \
120 121 122 123 124 125 126 127 128 129 \
130 131 132 133 134 135 136 137 138 139 \
140 141 142 143 144 145 146 147 148 149 \
150 151 152 153 154 155 156 157 158 159 \
160 161 162 163 164 165 166 167 168 169 
