#       Name:                CT1002167954
#       Creating user name   hitesit
#       Creation time:       Sun Apr 16 22:58:08 2023


#       File generated by GOLD software.
#

@<TRIPOS>MOLECULE
CT1002167954|ligand_prepared|mol2|1|dock7
    29    30     1
SMALL
NO_CHARGES


@<TRIPOS>ATOM
      1 C1         190.4189 -12.4028  49.5835 C.3            1 RES1               0.0000
      2 C2         189.9467 -11.1266  50.3094 C.ar           1 RES1               0.0000
      3 C3         189.4802 -12.5922  48.3955 C.2            1 RES1               0.0000
      4 C4         191.8729 -12.1593  49.1948 C.2            1 RES1               0.0000
      5 C5         190.3654 -13.6760  50.4596 C.3            1 RES1               0.0000
      6 C6         189.9454 -11.0614  51.6995 C.ar           1 RES1               0.0000
      7 C7         189.5129 -10.0074  49.6038 C.ar           1 RES1               0.0000
      8 N8         189.9684 -12.3114  47.1535 N.am           1 RES1               0.0000
      9 O9         188.3173 -12.9446  48.5498 O.2            1 RES1               0.0000
     10 N10        192.1769 -12.0833  47.8608 N.am           1 RES1               0.0000
     11 O11        192.7555 -12.0161  50.0320 O.2            1 RES1               0.0000
     12 C12        190.5403 -14.9674  49.6760 C.3            1 RES1               0.0000
     13 C13        189.5283  -9.9179  52.3604 C.ar           1 RES1               0.0000
     14 C14        189.0961  -8.8649  50.2666 C.ar           1 RES1               0.0000
     15 C15        191.2856 -12.1176  46.8232 C.2            1 RES1               0.0000
     16 C16        189.1039  -8.8188  51.6445 C.ar           1 RES1               0.0000
     17 O17        191.6295 -11.9879  45.6518 O.2            1 RES1               0.0000
     18 H18        191.1537 -13.6149  51.2200 H              1 RES1               0.0000
     19 H19        189.3998 -13.7066  50.9795 H              1 RES1               0.0000
     20 H20        190.2736 -11.9173  52.2798 H              1 RES1               0.0000
     21 H21        189.4973 -10.0214  48.5193 H              1 RES1               0.0000
     22 H22        189.2915 -12.2386  46.4006 H              1 RES1               0.0000
     23 H23        193.1585 -11.9928  47.6188 H              1 RES1               0.0000
     24 H24        190.4946 -15.8295  50.3381 H              1 RES1               0.0000
     25 H25        189.7579 -15.0732  48.9273 H              1 RES1               0.0000
     26 H26        191.5014 -14.9820  49.1663 H              1 RES1               0.0000
     27 H27        189.5351  -9.8872  53.4449 H              1 RES1               0.0000
     28 H28        188.7623  -8.0024  49.6992 H              1 RES1               0.0000
     29 H29        188.7776  -7.9230  52.1624 H              1 RES1               0.0000
@<TRIPOS>BOND
    1    1    2 1     
    2    1    3 1     
    3    1    4 1     
    4    1    5 1     
    5    2    6 ar    
    6    2    7 ar    
    7    3    8 1     
    8    3    9 2     
    9    4   10 1     
   10    4   11 2     
   11    5   12 1     
   12    5   18 1     
   13    5   19 1     
   14    6   13 ar    
   15    6   20 1     
   16    7   14 ar    
   17    7   21 1     
   18    8   15 1     
   19    8   22 1     
   20   10   15 1     
   21   10   23 1     
   22   12   24 1     
   23   12   25 1     
   24   12   26 1     
   25   13   16 ar    
   26   13   27 1     
   27   14   16 ar    
   28   14   28 1     
   29   15   17 2     
   30   16   29 1     
@<TRIPOS>SUBSTRUCTURE
      1 RES1           1
@<TRIPOS>SET
DONOR_HYDROGENS      STATIC     ATOMS    <user>   **** ""
2 22 23
ATOM$RED        STATIC     ATOMS    COLORGROUP SYSTEM
2 22 23
@<TRIPOS>COMMENT
> <Gold.Version>
2022.3.0

> <Gold.Id.Protein>
unknown|4v3u_clean|pdb

> <Gold.Protein.RotatedTorsions>
[ 6601 6555 6556 6557 ] final  -70.76 input  119.23 | X-H torsion
[ 8042 8007 8008 8009 ] final   59.84 input   55.11 | X-H torsion
[ 8119 8084 8085 8086 ] final    5.82 input   97.66 | X-H torsion
[ 8180 8150 8151 8152 ] final   94.16 input   74.82 | X-H torsion
[ 8260 8218 8219 8220 ] final  173.27 input   76.36 | X-H torsion
[ 9557 9518 9517 9515 ] final  -68.36 input   59.97 | X-H torsion
[ 6681 6635 6636 6637 ] final -163.97 input  125.14 | X-H torsion
[ 8323 8295 8296 8297 ] final  -28.77 input   97.98 | X-H torsion
[ 10202 10167 10168 10169 ] final  -51.85 input   38.66 | X-H torsion
[ 7961 7920 7921 7922 ] final  -32.75 input   85.79 | X-H torsion
[ 6824 6784 6785 6786 ] final   73.42 input  126.65 | X-H torsion
[ 7900 7873 7874 7875 ] final  -58.25 input  103.19 | X-H torsion
[ 7904 7878 7877 7874 ] final -111.31 input   60.02 | X-H torsion
[ 27201 6558 6557 6556 ] final -151.02 input    0.00 | X-H torsion
[ 27203 7876 7875 7874 ] final -165.21 input   -0.00 | X-H torsion
[ 27206 8010 8009 8008 ] final  172.01 input    0.00 | X-H torsion
[ 27209 8087 8086 8085 ] final  -16.06 input    0.00 | X-H torsion
[ 27212 8153 8152 8151 ] final  141.52 input   -0.00 | X-H torsion
[ 27219 10084 10083 10082 ] final   59.31 input    0.00 | X-H torsion
[ 27222 10170 10169 10168 ] final  -64.82 input    0.00 | X-H torsion
[ 27225 7923 7922 7921 ] final  -19.79 input   -0.00 | X-H torsion
[ 27227 6365 6364 6363 ] final -136.85 input    0.00 | X-H torsion
[ 27230 7788 7787 7786 ] final -107.22 input    0.00 | X-H torsion
[ 27232 7715 7714 7713 ] final  -89.00 input    0.00 | X-H torsion

> <Gold.Protein.ActiveResidues>
 THR404  ILE407  TYR408  ALA410  LYS411  TRP414  GLN425  TRP426  SER427  LYS428 
 LEU429  GLN430  VAL431  PHE432  ASP433  TYR453  SER462  ALA463  ILE464 

> <Gold.Protein.RotatedAtoms>
  195.9224   -8.2134   37.7998 H   0  0  0  0  0  0  0  0  0  0  0  0  # atno 6601 bound_to 6555
  197.9765  -10.0429   40.2286 H   0  0  0  0  0  0  0  0  0  0  0  0  # atno 6681 bound_to 6635
  197.3850   -5.6382   42.1073 H   0  0  0  0  0  0  0  0  0  0  0  0  # atno 6824 bound_to 6784
  196.6711   -6.4038   49.7993 H   0  0  0  0  0  0  0  0  0  0  0  0  # atno 7900 bound_to 7873
  199.2791   -8.9240   51.5627 H   0  0  0  0  0  0  0  0  0  0  0  0  # atno 7904 bound_to 7878
  195.3274   -8.2290   49.4238 H   0  0  0  0  0  0  0  0  0  0  0  0  # atno 7961 bound_to 7920
  193.6263   -8.9612   47.8147 H   0  0  0  0  0  0  0  0  0  0  0  0  # atno 8042 bound_to 8007
  190.4095   -7.6441   45.9641 H   0  0  0  0  0  0  0  0  0  0  0  0  # atno 8119 bound_to 8084
  190.4765  -10.0804   43.0642 H   0  0  0  0  0  0  0  0  0  0  0  0  # atno 8180 bound_to 8150
  187.8833   -8.4919   41.0672 H   0  0  0  0  0  0  0  0  0  0  0  0  # atno 8260 bound_to 8218
  186.9711   -8.8001   37.1625 H   0  0  0  0  0  0  0  0  0  0  0  0  # atno 8323 bound_to 8295
  185.6166  -11.8278   48.7922 H   0  0  0  0  0  0  0  0  0  0  0  0  # atno 9557 bound_to 9518
  187.1609   -5.1453   43.5973 H   0  0  0  0  0  0  0  0  0  0  0  0  # atno 10202 bound_to 10167
  196.1548   -9.9421   37.6584 LP  0  0  0  0  0  0  0  0  0  0  0  0  # atno 27200 bound_to 6555
  197.5966   -7.1656   41.4820 LP  0  0  0  0  0  0  0  0  0  0  0  0  # atno 27201 bound_to 6558
  196.0584   -7.8687   41.8556 LP  0  0  0  0  0  0  0  0  0  0  0  0  # atno 27202 bound_to 6558
  194.7396  -10.3719   48.4786 LP  0  0  0  0  0  0  0  0  0  0  0  0  # atno 27203 bound_to 7876
  196.4331  -10.5064   48.1415 LP  0  0  0  0  0  0  0  0  0  0  0  0  # atno 27204 bound_to 7876
  192.6801   -8.3675   49.1612 LP  0  0  0  0  0  0  0  0  0  0  0  0  # atno 27205 bound_to 8007
  191.6781  -10.1084   45.0898 LP  0  0  0  0  0  0  0  0  0  0  0  0  # atno 27206 bound_to 8010
  193.1072   -9.3034   45.6461 LP  0  0  0  0  0  0  0  0  0  0  0  0  # atno 27207 bound_to 8010
  190.2700   -8.9413   47.1271 LP  0  0  0  0  0  0  0  0  0  0  0  0  # atno 27208 bound_to 8084
  188.3003   -7.1466   44.5138 LP  0  0  0  0  0  0  0  0  0  0  0  0  # atno 27209 bound_to 8087
  189.1017   -6.9413   42.9921 LP  0  0  0  0  0  0  0  0  0  0  0  0  # atno 27210 bound_to 8087
  189.2552   -8.9236   43.5378 LP  0  0  0  0  0  0  0  0  0  0  0  0  # atno 27211 bound_to 8150
  188.0223  -10.8654   40.1895 LP  0  0  0  0  0  0  0  0  0  0  0  0  # atno 27212 bound_to 8153
  189.7536  -10.9161   40.1779 LP  0  0  0  0  0  0  0  0  0  0  0  0  # atno 27213 bound_to 8153
  188.9219   -7.9007   39.7937 LP  0  0  0  0  0  0  0  0  0  0  0  0  # atno 27214 bound_to 8218
  186.5379  -10.7969   47.9338 LP  0  0  0  0  0  0  0  0  0  0  0  0  # atno 27215 bound_to 9518
  186.1368  -12.2516   47.3095 LP  0  0  0  0  0  0  0  0  0  0  0  0  # atno 27216 bound_to 9518
  197.6972   -8.5248   39.4073 LP  0  0  0  0  0  0  0  0  0  0  0  0  # atno 27217 bound_to 6635
  188.3653   -9.8142   37.4714 LP  0  0  0  0  0  0  0  0  0  0  0  0  # atno 27218 bound_to 8295
  187.2426   -7.5426   48.3577 LP  0  0  0  0  0  0  0  0  0  0  0  0  # atno 27219 bound_to 10084
  188.5935   -7.3412   47.2925 LP  0  0  0  0  0  0  0  0  0  0  0  0  # atno 27220 bound_to 10084
  188.8440   -4.9812   44.0454 LP  0  0  0  0  0  0  0  0  0  0  0  0  # atno 27221 bound_to 10167
  188.8483   -6.0950   40.7373 LP  0  0  0  0  0  0  0  0  0  0  0  0  # atno 27222 bound_to 10170
  187.1386   -6.3542   40.8360 LP  0  0  0  0  0  0  0  0  0  0  0  0  # atno 27223 bound_to 10170
  195.6169   -8.7758   51.0616 LP  0  0  0  0  0  0  0  0  0  0  0  0  # atno 27224 bound_to 7920
  191.5967   -7.7079   50.9697 LP  0  0  0  0  0  0  0  0  0  0  0  0  # atno 27225 bound_to 7923
  191.5025   -6.7845   49.5073 LP  0  0  0  0  0  0  0  0  0  0  0  0  # atno 27226 bound_to 7923
  198.5488  -10.3850   38.2709 LP  0  0  0  0  0  0  0  0  0  0  0  0  # atno 27227 bound_to 6365
  199.0981  -11.8992   38.9077 LP  0  0  0  0  0  0  0  0  0  0  0  0  # atno 27228 bound_to 6365
  195.9678   -4.7522   42.6238 LP  0  0  0  0  0  0  0  0  0  0  0  0  # atno 27229 bound_to 6784
  195.2893   -6.6315   48.3505 LP  0  0  0  0  0  0  0  0  0  0  0  0  # atno 27230 bound_to 7788
  196.6029   -5.8095   47.5768 LP  0  0  0  0  0  0  0  0  0  0  0  0  # atno 27231 bound_to 7788
  195.0827   -7.1332   51.4260 LP  0  0  0  0  0  0  0  0  0  0  0  0  # atno 27232 bound_to 7715
  194.0987   -5.7899   50.9493 LP  0  0  0  0  0  0  0  0  0  0  0  0  # atno 27233 bound_to 7715
  197.9341   -7.0161   50.8323 LP  0  0  0  0  0  0  0  0  0  0  0  0  # atno 27234 bound_to 7873
  198.4233  -10.3076   51.6043 LP  0  0  0  0  0  0  0  0  0  0  0  0  # atno 27235 bound_to 7878
  197.6543   -8.8673   51.6340 LP  0  0  0  0  0  0  0  0  0  0  0  0  # atno 27236 bound_to 7878

> <Gold.Score>
     Fitness  S(hb_ext) S(vdw_ext)  S(hb_int)    S(int)      intcor
     34.25       6.00      21.02       0.00      -0.65      -0.76

> <Gold.Goldscore.Fitness>
34.2460

> <Gold.Goldscore.Internal.Vdw>
-0.8031

> <Gold.Goldscore.Internal.Torsion>
-0.6128

> <Gold.Goldscore.External.Vdw>
21.0160

> <Gold.Goldscore.Internal.HBond>
0.0000

> <Gold.Goldscore.External.HBond>
6.0000

> <Gold.Goldscore.Internal.Correction>
-0.7650

> <Gold.Goldscore.Hbonds>
donor molecule, donor type, donor heavy atom, donor atom, acceptor molecule, acceptor atom, score
      L1  H     8    22       P1  8092  1.00

> <Gold.Goldscore.Internal.Vdw.Weighted>
-0.8031

> <Gold.Goldscore.Internal.Torsion.Weighted>
-0.6128

> <Gold.Goldscore.External.Vdw.Weighted>
28.8969

> <Gold.Goldscore.Internal.HBond.Weighted>
0.0000

> <Gold.Goldscore.External.HBond.Weighted>
6.0000

> <Gold.Goldscore.Internal.Correction.Weighted>
-0.7650

> <Gold.Rescore>
     Score     S(PLP)   S(hbond)     S(cho)   S(metal)  DE(clash)   DE(tors)     intcor
     32.21     -30.64       1.00       0.00       0.00       0.00       0.71       ----

> <Gold.PLP.Fitness>
32.2126

> <Gold.PLP.PLP>
-30.6416

> <Gold.PLP.part.hbond>
-2.0000

> <Gold.PLP.part.metal>
0.0000

> <Gold.PLP.part.buried>
-5.0607

> <Gold.PLP.part.nonpolar>
-24.2597

> <Gold.PLP.part.repulsive>
0.3121

> <Gold.PLP.ligand.clash>
0.0000

> <Gold.PLP.ligand.torsion>
0.7145

> <Gold.PLP.Chemscore.Hbond>
1.0000

> <Gold.PLP.Chemscore.CHOScore>
0.0000

> <Gold.PLP.Chemscore.Metal>
0.0000

> <Gold.Chemscore.Hbonds>
donor molecule, donor type, donor heavy atom, donor atom, acceptor molecule, acceptor atom, score
      L1  H     8    22       P1  8092  1.00

> <Gold.PLP.Chemscore.Internal.Correction>
   9.000000E+99

#       Name:                CT1002167954
#       Creating user name   hitesit
#       Creation time:       Sun Apr 16 22:58:06 2023


#       File generated by GOLD software.
#

@<TRIPOS>MOLECULE
CT1002167954|ligand_prepared|mol2|1|dock2
    29    30     1
SMALL
NO_CHARGES


@<TRIPOS>ATOM
      1 C1         191.3955 -13.8452  44.6624 C.3            1 RES1               0.0000
      2 C2         190.5551 -13.4418  45.8911 C.ar           1 RES1               0.0000
      3 C3         190.6115 -13.3842  43.4371 C.2            1 RES1               0.0000
      4 C4         192.7486 -13.1626  44.8282 C.2            1 RES1               0.0000
      5 C5         191.6397 -15.3678  44.5450 C.3            1 RES1               0.0000
      6 C6         190.7816 -12.2305  46.5378 C.ar           1 RES1               0.0000
      7 C7         189.5499 -14.2678  46.3871 C.ar           1 RES1               0.0000
      8 N8         191.0745 -12.2915  42.7653 N.am           1 RES1               0.0000
      9 O9         189.5809 -13.9471  43.0890 O.2            1 RES1               0.0000
     10 N10        193.0951 -12.1951  43.9217 N.am           1 RES1               0.0000
     11 O11        193.5108 -13.4420  45.7455 O.2            1 RES1               0.0000
     12 C12        192.7074 -15.7409  43.5287 C.3            1 RES1               0.0000
     13 C13        190.0285 -11.8570  47.6386 C.ar           1 RES1               0.0000
     14 C14        188.7982 -13.8925  47.4882 C.ar           1 RES1               0.0000
     15 C15        192.3063 -11.7071  42.9158 C.2            1 RES1               0.0000
     16 C16        189.0362 -12.6874  48.1143 C.ar           1 RES1               0.0000
     17 O17        192.6676 -10.7974  42.1748 O.2            1 RES1               0.0000
     18 H18        191.9369 -15.7545  45.5276 H              1 RES1               0.0000
     19 H19        190.6984 -15.8557  44.2634 H              1 RES1               0.0000
     20 H20        191.5599 -11.5651  46.1793 H              1 RES1               0.0000
     21 H21        189.3458 -15.2209  45.9112 H              1 RES1               0.0000
     22 H22        190.4466 -11.8697  42.0883 H              1 RES1               0.0000
     23 H23        194.0275 -11.8025  44.0043 H              1 RES1               0.0000
     24 H24        192.8390 -16.8201  43.4861 H              1 RES1               0.0000
     25 H25        192.4323 -15.3936  42.5350 H              1 RES1               0.0000
     26 H26        193.6635 -15.2930  43.7917 H              1 RES1               0.0000
     27 H27        190.2207 -10.9082  48.1286 H              1 RES1               0.0000
     28 H28        188.0185 -14.5494  47.8596 H              1 RES1               0.0000
     29 H29        188.4461 -12.3944  48.9764 H              1 RES1               0.0000
@<TRIPOS>BOND
    1    1    2 1     
    2    1    3 1     
    3    1    4 1     
    4    1    5 1     
    5    2    6 ar    
    6    2    7 ar    
    7    3    8 1     
    8    3    9 2     
    9    4   10 1     
   10    4   11 2     
   11    5   12 1     
   12    5   18 1     
   13    5   19 1     
   14    6   13 ar    
   15    6   20 1     
   16    7   14 ar    
   17    7   21 1     
   18    8   15 1     
   19    8   22 1     
   20   10   15 1     
   21   10   23 1     
   22   12   24 1     
   23   12   25 1     
   24   12   26 1     
   25   13   16 ar    
   26   13   27 1     
   27   14   16 ar    
   28   14   28 1     
   29   15   17 2     
   30   16   29 1     
@<TRIPOS>SUBSTRUCTURE
      1 RES1           1
@<TRIPOS>SET
DONOR_HYDROGENS      STATIC     ATOMS    <user>   **** ""
2 22 23
ATOM$RED        STATIC     ATOMS    COLORGROUP SYSTEM
2 22 23
@<TRIPOS>COMMENT
> <Gold.Version>
2022.3.0

> <Gold.Id.Protein>
unknown|4v3u_clean|pdb

> <Gold.Protein.RotatedTorsions>
[ 6601 6555 6556 6557 ] final -179.20 input  119.23 | X-H torsion
[ 8042 8007 8008 8009 ] final   31.21 input   55.11 | X-H torsion
[ 8119 8084 8085 8086 ] final -162.72 input   97.66 | X-H torsion
[ 8180 8150 8151 8152 ] final   11.48 input   74.82 | X-H torsion
[ 8260 8218 8219 8220 ] final  -39.23 input   76.36 | X-H torsion
[ 9557 9518 9517 9515 ] final   41.27 input   59.97 | X-H torsion
[ 6681 6635 6636 6637 ] final -165.93 input  125.14 | X-H torsion
[ 8323 8295 8296 8297 ] final   30.44 input   97.98 | X-H torsion
[ 10202 10167 10168 10169 ] final -152.26 input   38.66 | X-H torsion
[ 7961 7920 7921 7922 ] final   52.53 input   85.79 | X-H torsion
[ 6824 6784 6785 6786 ] final   60.75 input  126.65 | X-H torsion
[ 7900 7873 7874 7875 ] final   13.05 input  103.19 | X-H torsion
[ 7904 7878 7877 7874 ] final  128.43 input   60.02 | X-H torsion
[ 27201 6558 6557 6556 ] final  -28.25 input    0.00 | X-H torsion
[ 27203 7876 7875 7874 ] final -157.50 input   -0.00 | X-H torsion
[ 27206 8010 8009 8008 ] final -176.81 input    0.00 | X-H torsion
[ 27209 8087 8086 8085 ] final  164.67 input    0.00 | X-H torsion
[ 27212 8153 8152 8151 ] final  -10.25 input   -0.00 | X-H torsion
[ 27219 10084 10083 10082 ] final  -21.26 input    0.00 | X-H torsion
[ 27222 10170 10169 10168 ] final  166.85 input    0.00 | X-H torsion
[ 27225 7923 7922 7921 ] final    2.61 input   -0.00 | X-H torsion
[ 27227 6365 6364 6363 ] final  159.80 input    0.00 | X-H torsion
[ 27230 7788 7787 7786 ] final -114.57 input    0.00 | X-H torsion
[ 27232 7715 7714 7713 ] final   31.18 input    0.00 | X-H torsion

> <Gold.Protein.ActiveResidues>
 THR404  ILE407  TYR408  ALA410  LYS411  TRP414  GLN425  TRP426  SER427  LYS428 
 LEU429  GLN430  VAL431  PHE432  ASP433  TYR453  SER462  ALA463  ILE464 

> <Gold.Protein.RotatedAtoms>
  195.2459   -9.4733   37.6177 H   0  0  0  0  0  0  0  0  0  0  0  0  # atno 6601 bound_to 6555
  197.9923  -10.0524   40.2047 H   0  0  0  0  0  0  0  0  0  0  0  0  # atno 6681 bound_to 6635
  197.4638   -5.4596   42.0904 H   0  0  0  0  0  0  0  0  0  0  0  0  # atno 6824 bound_to 6784
  196.5316   -6.8853   50.6863 H   0  0  0  0  0  0  0  0  0  0  0  0  # atno 7900 bound_to 7873
  198.4192  -10.3010   51.6023 H   0  0  0  0  0  0  0  0  0  0  0  0  # atno 7904 bound_to 7878
  195.1754   -7.7043   50.4991 H   0  0  0  0  0  0  0  0  0  0  0  0  # atno 7961 bound_to 7920
  193.3020   -9.2542   47.8570 H   0  0  0  0  0  0  0  0  0  0  0  0  # atno 8042 bound_to 8007
  190.4187   -9.0147   47.0683 H   0  0  0  0  0  0  0  0  0  0  0  0  # atno 8119 bound_to 8084
  189.3128  -10.1036   42.9668 H   0  0  0  0  0  0  0  0  0  0  0  0  # atno 8180 bound_to 8150
  189.0568   -8.3670   39.8523 H   0  0  0  0  0  0  0  0  0  0  0  0  # atno 8260 bound_to 8218
  186.9361   -9.6585   36.9689 H   0  0  0  0  0  0  0  0  0  0  0  0  # atno 8323 bound_to 8295
  186.0389  -12.3429   47.4141 H   0  0  0  0  0  0  0  0  0  0  0  0  # atno 9557 bound_to 9518
  187.9692   -4.3599   44.3665 H   0  0  0  0  0  0  0  0  0  0  0  0  # atno 10202 bound_to 10167
  196.8107   -8.7207   37.8348 LP  0  0  0  0  0  0  0  0  0  0  0  0  # atno 27200 bound_to 6555
  196.0895   -7.2530   41.3006 LP  0  0  0  0  0  0  0  0  0  0  0  0  # atno 27201 bound_to 6558
  197.5655   -7.7813   42.0370 LP  0  0  0  0  0  0  0  0  0  0  0  0  # atno 27202 bound_to 6558
  194.7358  -10.2967   48.3897 LP  0  0  0  0  0  0  0  0  0  0  0  0  # atno 27203 bound_to 7876
  196.4369  -10.5816   48.2304 LP  0  0  0  0  0  0  0  0  0  0  0  0  # atno 27204 bound_to 7876
  192.9948   -8.0832   49.1200 LP  0  0  0  0  0  0  0  0  0  0  0  0  # atno 27205 bound_to 8007
  191.6845   -9.9969   44.9633 LP  0  0  0  0  0  0  0  0  0  0  0  0  # atno 27206 bound_to 8010
  193.1009   -9.4149   45.7726 LP  0  0  0  0  0  0  0  0  0  0  0  0  # atno 27207 bound_to 8010
  190.2611   -7.6034   46.0492 LP  0  0  0  0  0  0  0  0  0  0  0  0  # atno 27208 bound_to 8084
  189.0929   -6.9455   42.9870 LP  0  0  0  0  0  0  0  0  0  0  0  0  # atno 27209 bound_to 8087
  188.3092   -7.1425   44.5190 LP  0  0  0  0  0  0  0  0  0  0  0  0  # atno 27210 bound_to 8087
  190.3917   -8.9009   43.6328 LP  0  0  0  0  0  0  0  0  0  0  0  0  # atno 27211 bound_to 8150
  189.6506  -11.0059   40.5775 LP  0  0  0  0  0  0  0  0  0  0  0  0  # atno 27212 bound_to 8153
  188.1253  -10.7756   39.7899 LP  0  0  0  0  0  0  0  0  0  0  0  0  # atno 27213 bound_to 8153
  187.7720   -8.0231   40.9842 LP  0  0  0  0  0  0  0  0  0  0  0  0  # atno 27214 bound_to 8218
  185.6647  -11.6757   48.8505 LP  0  0  0  0  0  0  0  0  0  0  0  0  # atno 27215 bound_to 9518
  186.5849  -10.8542   47.7805 LP  0  0  0  0  0  0  0  0  0  0  0  0  # atno 27216 bound_to 9518
  197.6819   -8.5155   39.4306 LP  0  0  0  0  0  0  0  0  0  0  0  0  # atno 27217 bound_to 6635
  188.3990   -8.9859   37.6582 LP  0  0  0  0  0  0  0  0  0  0  0  0  # atno 27218 bound_to 8295
  188.3398   -7.5037   48.5790 LP  0  0  0  0  0  0  0  0  0  0  0  0  # atno 27219 bound_to 10084
  187.4963   -7.3801   47.0713 LP  0  0  0  0  0  0  0  0  0  0  0  0  # atno 27220 bound_to 10084
  188.0598   -5.7431   43.2992 LP  0  0  0  0  0  0  0  0  0  0  0  0  # atno 27221 bound_to 10167
  187.4090   -6.2026   40.1479 LP  0  0  0  0  0  0  0  0  0  0  0  0  # atno 27222 bound_to 10170
  188.5779   -6.2466   41.4254 LP  0  0  0  0  0  0  0  0  0  0  0  0  # atno 27223 bound_to 10170
  195.7638   -9.2829   50.0225 LP  0  0  0  0  0  0  0  0  0  0  0  0  # atno 27224 bound_to 7920
  191.8390   -7.4801   51.0205 LP  0  0  0  0  0  0  0  0  0  0  0  0  # atno 27225 bound_to 7923
  191.2602   -7.0123   49.4565 LP  0  0  0  0  0  0  0  0  0  0  0  0  # atno 27226 bound_to 7923
  199.4283  -10.6163   38.2612 LP  0  0  0  0  0  0  0  0  0  0  0  0  # atno 27227 bound_to 6365
  198.2186  -11.6680   38.9174 LP  0  0  0  0  0  0  0  0  0  0  0  0  # atno 27228 bound_to 6365
  195.8913   -4.9256   42.6402 LP  0  0  0  0  0  0  0  0  0  0  0  0  # atno 27229 bound_to 6784
  195.3445   -6.7254   48.3287 LP  0  0  0  0  0  0  0  0  0  0  0  0  # atno 27230 bound_to 7788
  196.5477   -5.7157   47.5987 LP  0  0  0  0  0  0  0  0  0  0  0  0  # atno 27231 bound_to 7788
  193.8966   -6.2423   51.6567 LP  0  0  0  0  0  0  0  0  0  0  0  0  # atno 27232 bound_to 7715
  195.2849   -6.6808   50.7185 LP  0  0  0  0  0  0  0  0  0  0  0  0  # atno 27233 bound_to 7715
  198.0728   -6.5376   49.9509 LP  0  0  0  0  0  0  0  0  0  0  0  0  # atno 27234 bound_to 7873
  197.6566   -8.8637   51.6339 LP  0  0  0  0  0  0  0  0  0  0  0  0  # atno 27235 bound_to 7878
  199.2869   -8.9247   51.5646 LP  0  0  0  0  0  0  0  0  0  0  0  0  # atno 27236 bound_to 7878

> <Gold.Score>
     Fitness  S(hb_ext) S(vdw_ext)  S(hb_int)    S(int)      intcor
     31.16       6.73      18.26       0.00      -0.68      -0.76

> <Gold.Goldscore.Fitness>
31.1630

> <Gold.Goldscore.Internal.Vdw>
-0.8269

> <Gold.Goldscore.Internal.Torsion>
-0.6175

> <Gold.Goldscore.External.Vdw>
18.2618

> <Gold.Goldscore.Internal.HBond>
0.0000

> <Gold.Goldscore.External.HBond>
6.7325

> <Gold.Goldscore.Internal.Correction>
-0.7650

> <Gold.Goldscore.Hbonds>
donor molecule, donor type, donor heavy atom, donor atom, acceptor molecule, acceptor atom, score
      P1  H  6792  6835       L1    11  0.96
      P1  H  8091  8125       L1     9  0.01
      L1  H     8    22       P1  8153  0.48

> <Gold.Goldscore.Internal.Vdw.Weighted>
-0.8269

> <Gold.Goldscore.Internal.Torsion.Weighted>
-0.6175

> <Gold.Goldscore.External.Vdw.Weighted>
25.1100

> <Gold.Goldscore.Internal.HBond.Weighted>
0.0000

> <Gold.Goldscore.External.HBond.Weighted>
6.7325

> <Gold.Goldscore.Internal.Correction.Weighted>
-0.7650

> <Gold.Rescore>
     Score     S(PLP)   S(hbond)     S(cho)   S(metal)  DE(clash)   DE(tors)     intcor
      4.86      -6.62       0.00       0.00       0.00       0.00       0.88       ----

> <Gold.PLP.Fitness>
4.8619

> <Gold.PLP.PLP>
-6.6209

> <Gold.PLP.part.hbond>
-0.5122

> <Gold.PLP.part.metal>
0.0000

> <Gold.PLP.part.buried>
-2.3087

> <Gold.PLP.part.nonpolar>
-10.1691

> <Gold.PLP.part.repulsive>
6.4607

> <Gold.PLP.ligand.clash>
0.0000

> <Gold.PLP.ligand.torsion>
0.8795

> <Gold.PLP.Chemscore.Hbond>
0.0000

> <Gold.PLP.Chemscore.CHOScore>
0.0000

> <Gold.PLP.Chemscore.Metal>
0.0000

> <Gold.Chemscore.Hbonds>
donor molecule, donor type, donor heavy atom, donor atom, acceptor molecule, acceptor atom, score
      P1  H  6792  6835       L1    11  0.41
      P1  H  8091  8125       L1     9  0.59

> <Gold.PLP.Chemscore.Internal.Correction>
   9.000000E+99

#       Name:                CT1002167954
#       Creating user name   hitesit
#       Creation time:       Sun Apr 16 22:58:06 2023


#       File generated by GOLD software.
#

@<TRIPOS>MOLECULE
CT1002167954|ligand_prepared|mol2|1|dock3
    29    30     1
SMALL
NO_CHARGES


@<TRIPOS>ATOM
      1 C1         191.4698 -13.8244  44.6331 C.3            1 RES1               0.0000
      2 C2         190.6661 -13.4324  45.8897 C.ar           1 RES1               0.0000
      3 C3         190.6754 -13.3066  43.4376 C.2            1 RES1               0.0000
      4 C4         192.8453 -13.1854  44.7899 C.2            1 RES1               0.0000
      5 C5         191.6674 -15.3493  44.4683 C.3            1 RES1               0.0000
      6 C6         190.9435 -12.2492  46.5678 C.ar           1 RES1               0.0000
      7 C7         189.6443 -14.2410  46.3805 C.ar           1 RES1               0.0000
      8 N8         191.1564 -12.2087  42.7871 N.am           1 RES1               0.0000
      9 O9         189.6222 -13.8298  43.0953 O.2            1 RES1               0.0000
     10 N10        193.2016 -12.2028  43.9038 N.am           1 RES1               0.0000
     11 O11        193.6171 -13.5124  45.6831 O.2            1 RES1               0.0000
     12 C12        192.6476 -15.7252  43.3682 C.3            1 RES1               0.0000
     13 C13        190.2236 -11.8859  47.6939 C.ar           1 RES1               0.0000
     14 C14        188.9258 -13.8759  47.5070 C.ar           1 RES1               0.0000
     15 C15        192.4075 -11.6641  42.9284 C.2            1 RES1               0.0000
     16 C16        189.2142 -12.6987  48.1640 C.ar           1 RES1               0.0000
     17 O17        192.7802 -10.7444  42.2057 O.2            1 RES1               0.0000
     18 H18        192.0270 -15.7635  45.4183 H              1 RES1               0.0000
     19 H19        190.6962 -15.8094  44.2481 H              1 RES1               0.0000
     20 H20        191.7359 -11.5981  46.2141 H              1 RES1               0.0000
     21 H21        189.4008 -15.1722  45.8803 H              1 RES1               0.0000
     22 H22        190.5278 -11.7502  42.1353 H              1 RES1               0.0000
     23 H23        194.1464 -11.8394  43.9780 H              1 RES1               0.0000
     24 H24        192.7493 -16.8059  43.2950 H              1 RES1               0.0000
     25 H25        192.3083 -15.3507  42.4047 H              1 RES1               0.0000
     26 H26        193.6312 -15.3050  43.5679 H              1 RES1               0.0000
     27 H27        190.4554 -10.9591  48.2082 H              1 RES1               0.0000
     28 H28        188.1326 -14.5190  47.8737 H              1 RES1               0.0000
     29 H29        188.6501 -12.4137  49.0460 H              1 RES1               0.0000
@<TRIPOS>BOND
    1    1    2 1     
    2    1    3 1     
    3    1    4 1     
    4    1    5 1     
    5    2    6 ar    
    6    2    7 ar    
    7    3    8 1     
    8    3    9 2     
    9    4   10 1     
   10    4   11 2     
   11    5   12 1     
   12    5   18 1     
   13    5   19 1     
   14    6   13 ar    
   15    6   20 1     
   16    7   14 ar    
   17    7   21 1     
   18    8   15 1     
   19    8   22 1     
   20   10   15 1     
   21   10   23 1     
   22   12   24 1     
   23   12   25 1     
   24   12   26 1     
   25   13   16 ar    
   26   13   27 1     
   27   14   16 ar    
   28   14   28 1     
   29   15   17 2     
   30   16   29 1     
@<TRIPOS>SUBSTRUCTURE
      1 RES1           1
@<TRIPOS>SET
DONOR_HYDROGENS      STATIC     ATOMS    <user>   **** ""
2 22 23
ATOM$RED        STATIC     ATOMS    COLORGROUP SYSTEM
2 22 23
@<TRIPOS>COMMENT
> <Gold.Version>
2022.3.0

> <Gold.Id.Protein>
unknown|4v3u_clean|pdb

> <Gold.Protein.RotatedTorsions>
[ 6601 6555 6556 6557 ] final   77.25 input  119.23 | X-H torsion
[ 8042 8007 8008 8009 ] final  -13.86 input   55.11 | X-H torsion
[ 8119 8084 8085 8086 ] final  -52.39 input   97.66 | X-H torsion
[ 8180 8150 8151 8152 ] final  -59.04 input   74.82 | X-H torsion
[ 8260 8218 8219 8220 ] final   39.62 input   76.36 | X-H torsion
[ 9557 9518 9517 9515 ] final   -8.87 input   59.97 | X-H torsion
[ 6681 6635 6636 6637 ] final  122.32 input  125.14 | X-H torsion
[ 8323 8295 8296 8297 ] final   -4.70 input   97.98 | X-H torsion
[ 10202 10167 10168 10169 ] final  158.21 input   38.66 | X-H torsion
[ 7961 7920 7921 7922 ] final  137.29 input   85.79 | X-H torsion
[ 6824 6784 6785 6786 ] final    2.95 input  126.65 | X-H torsion
[ 7900 7873 7874 7875 ] final  125.62 input  103.19 | X-H torsion
[ 7904 7878 7877 7874 ] final  142.97 input   60.02 | X-H torsion
[ 27201 6558 6557 6556 ] final  178.38 input    0.00 | X-H torsion
[ 27203 7876 7875 7874 ] final  153.24 input   -0.00 | X-H torsion
[ 27206 8010 8009 8008 ] final  -59.21 input    0.00 | X-H torsion
[ 27209 8087 8086 8085 ] final  -11.96 input    0.00 | X-H torsion
[ 27212 8153 8152 8151 ] final  -56.11 input   -0.00 | X-H torsion
[ 27219 10084 10083 10082 ] final  148.46 input    0.00 | X-H torsion
[ 27222 10170 10169 10168 ] final -165.19 input    0.00 | X-H torsion
[ 27225 7923 7922 7921 ] final  -20.45 input   -0.00 | X-H torsion
[ 27227 6365 6364 6363 ] final  -96.37 input    0.00 | X-H torsion
[ 27230 7788 7787 7786 ] final  -52.83 input    0.00 | X-H torsion
[ 27232 7715 7714 7713 ] final -157.68 input    0.00 | X-H torsion

> <Gold.Protein.ActiveResidues>
 THR404  ILE407  TYR408  ALA410  LYS411  TRP414  GLN425  TRP426  SER427  LYS428 
 LEU429  GLN430  VAL431  PHE432  ASP433  TYR453  SER462  ALA463  ILE464 

> <Gold.Protein.RotatedAtoms>
  196.6027   -9.7791   37.7378 H   0  0  0  0  0  0  0  0  0  0  0  0  # atno 6601 bound_to 6555
  198.3245   -9.7671   39.2631 H   0  0  0  0  0  0  0  0  0  0  0  0  # atno 6681 bound_to 6635
  197.3214   -4.6190   42.1858 H   0  0  0  0  0  0  0  0  0  0  0  0  # atno 6824 bound_to 6784
  197.9777   -6.9791   50.8065 H   0  0  0  0  0  0  0  0  0  0  0  0  # atno 7900 bound_to 7873
  198.6550  -10.2798   51.5922 H   0  0  0  0  0  0  0  0  0  0  0  0  # atno 7904 bound_to 7878
  195.5509   -8.6526   51.1318 H   0  0  0  0  0  0  0  0  0  0  0  0  # atno 7961 bound_to 7920
  192.7469   -9.4031   48.2212 H   0  0  0  0  0  0  0  0  0  0  0  0  # atno 8042 bound_to 8007
  191.0259   -8.2434   45.9985 H   0  0  0  0  0  0  0  0  0  0  0  0  # atno 8119 bound_to 8084
  189.0235   -9.2134   43.3742 H   0  0  0  0  0  0  0  0  0  0  0  0  # atno 8180 bound_to 8150
  188.4896   -7.4149   40.0170 H   0  0  0  0  0  0  0  0  0  0  0  0  # atno 8260 bound_to 8218
  186.8511   -9.1333   37.0494 H   0  0  0  0  0  0  0  0  0  0  0  0  # atno 8323 bound_to 8295
  185.6539  -12.4468   48.1002 H   0  0  0  0  0  0  0  0  0  0  0  0  # atno 9557 bound_to 9518
  188.6541   -4.6333   44.2681 H   0  0  0  0  0  0  0  0  0  0  0  0  # atno 10202 bound_to 10167
  195.4954   -8.4242   37.7185 LP  0  0  0  0  0  0  0  0  0  0  0  0  # atno 27200 bound_to 6555
  197.6843   -7.4897   41.7921 LP  0  0  0  0  0  0  0  0  0  0  0  0  # atno 27201 bound_to 6558
  195.9707   -7.5447   41.5455 LP  0  0  0  0  0  0  0  0  0  0  0  0  # atno 27202 bound_to 6558
  195.0089  -10.7633   48.8681 LP  0  0  0  0  0  0  0  0  0  0  0  0  # atno 27203 bound_to 7876
  196.1638  -10.1149   47.7520 LP  0  0  0  0  0  0  0  0  0  0  0  0  # atno 27204 bound_to 7876
  193.5335   -7.9387   48.7666 LP  0  0  0  0  0  0  0  0  0  0  0  0  # atno 27205 bound_to 8007
  192.8113   -9.0363   45.0124 LP  0  0  0  0  0  0  0  0  0  0  0  0  # atno 27206 bound_to 8010
  191.9740  -10.3754   45.7235 LP  0  0  0  0  0  0  0  0  0  0  0  0  # atno 27207 bound_to 8010
  189.6683   -8.3563   47.0935 LP  0  0  0  0  0  0  0  0  0  0  0  0  # atno 27208 bound_to 8084
  188.3508   -7.1232   44.5410 LP  0  0  0  0  0  0  0  0  0  0  0  0  # atno 27209 bound_to 8087
  189.0512   -6.9647   42.9649 LP  0  0  0  0  0  0  0  0  0  0  0  0  # atno 27210 bound_to 8087
  190.6741   -9.7703   43.2350 LP  0  0  0  0  0  0  0  0  0  0  0  0  # atno 27211 bound_to 8150
  189.7130  -10.8555   39.9227 LP  0  0  0  0  0  0  0  0  0  0  0  0  # atno 27212 bound_to 8153
  188.0630  -10.9260   40.4447 LP  0  0  0  0  0  0  0  0  0  0  0  0  # atno 27213 bound_to 8153
  188.3278   -8.9559   40.8227 LP  0  0  0  0  0  0  0  0  0  0  0  0  # atno 27214 bound_to 8218
  186.0612  -10.9955   48.7138 LP  0  0  0  0  0  0  0  0  0  0  0  0  # atno 27215 bound_to 9518
  186.5760  -11.4297   47.2262 LP  0  0  0  0  0  0  0  0  0  0  0  0  # atno 27216 bound_to 9518
  197.3584   -8.7933   40.3474 LP  0  0  0  0  0  0  0  0  0  0  0  0  # atno 27217 bound_to 6635
  188.4810   -9.4927   37.5805 LP  0  0  0  0  0  0  0  0  0  0  0  0  # atno 27218 bound_to 8295
  187.3684   -7.3975   47.1573 LP  0  0  0  0  0  0  0  0  0  0  0  0  # atno 27219 bound_to 10084
  188.4677   -7.4863   48.4929 LP  0  0  0  0  0  0  0  0  0  0  0  0  # atno 27220 bound_to 10084
  187.3954   -5.4778   43.3947 LP  0  0  0  0  0  0  0  0  0  0  0  0  # atno 27221 bound_to 10167
  187.7716   -6.1195   39.9561 LP  0  0  0  0  0  0  0  0  0  0  0  0  # atno 27222 bound_to 10170
  188.2153   -6.3296   41.6172 LP  0  0  0  0  0  0  0  0  0  0  0  0  # atno 27223 bound_to 10170
  195.4009   -8.3664   49.4110 LP  0  0  0  0  0  0  0  0  0  0  0  0  # atno 27224 bound_to 7920
  191.5892   -7.7137   50.9664 LP  0  0  0  0  0  0  0  0  0  0  0  0  # atno 27225 bound_to 7923
  191.5099   -6.7787   49.5105 LP  0  0  0  0  0  0  0  0  0  0  0  0  # atno 27226 bound_to 7923
  198.0857  -10.7015   38.4817 LP  0  0  0  0  0  0  0  0  0  0  0  0  # atno 27227 bound_to 6365
  199.5611  -11.5828   38.6969 LP  0  0  0  0  0  0  0  0  0  0  0  0  # atno 27228 bound_to 6365
  196.0296   -5.7418   42.5476 LP  0  0  0  0  0  0  0  0  0  0  0  0  # atno 27229 bound_to 6784
  195.2471   -5.8423   48.3076 LP  0  0  0  0  0  0  0  0  0  0  0  0  # atno 27230 bound_to 7788
  196.6451   -6.5988   47.6198 LP  0  0  0  0  0  0  0  0  0  0  0  0  # atno 27231 bound_to 7788
  195.2511   -6.5781   50.6396 LP  0  0  0  0  0  0  0  0  0  0  0  0  # atno 27232 bound_to 7715
  193.9303   -6.3450   51.7356 LP  0  0  0  0  0  0  0  0  0  0  0  0  # atno 27233 bound_to 7715
  196.6358   -6.4444   49.8315 LP  0  0  0  0  0  0  0  0  0  0  0  0  # atno 27234 bound_to 7873
  197.5563   -9.0801   51.6387 LP  0  0  0  0  0  0  0  0  0  0  0  0  # atno 27235 bound_to 7878
  199.1498   -8.7296   51.5701 LP  0  0  0  0  0  0  0  0  0  0  0  0  # atno 27236 bound_to 7878

> <Gold.Score>
     Fitness  S(hb_ext) S(vdw_ext)  S(hb_int)    S(int)      intcor
     29.62       6.16      17.57       0.00      -0.70      -0.76

> <Gold.Goldscore.Fitness>
29.6236

> <Gold.Goldscore.Internal.Vdw>
-0.9559

> <Gold.Goldscore.Internal.Torsion>
-0.5113

> <Gold.Goldscore.External.Vdw>
17.5720

> <Gold.Goldscore.Internal.HBond>
0.0000

> <Gold.Goldscore.External.HBond>
6.1644

> <Gold.Goldscore.Internal.Correction>
-0.7650

> <Gold.Goldscore.Hbonds>
donor molecule, donor type, donor heavy atom, donor atom, acceptor molecule, acceptor atom, score
      P1  H  6792  6835       L1    11  1.00
      L1  H     8    22       P1  8153  0.08

> <Gold.Goldscore.Internal.Vdw.Weighted>
-0.9559

> <Gold.Goldscore.Internal.Torsion.Weighted>
-0.5113

> <Gold.Goldscore.External.Vdw.Weighted>
24.1615

> <Gold.Goldscore.Internal.HBond.Weighted>
0.0000

> <Gold.Goldscore.External.HBond.Weighted>
6.1644

> <Gold.Goldscore.Internal.Correction.Weighted>
-0.7650

> <Gold.Rescore>
     Score     S(PLP)   S(hbond)     S(cho)   S(metal)  DE(clash)   DE(tors)     intcor
     22.38     -22.28       0.77       0.00       0.00       0.00       1.10       ----

> <Gold.PLP.Fitness>
22.3805

> <Gold.PLP.PLP>
-22.2757

> <Gold.PLP.part.hbond>
-3.0487

> <Gold.PLP.part.metal>
0.0000

> <Gold.PLP.part.buried>
-5.2141

> <Gold.PLP.part.nonpolar>
-15.1744

> <Gold.PLP.part.repulsive>
0.5210

> <Gold.PLP.ligand.clash>
0.0000

> <Gold.PLP.ligand.torsion>
1.0996

> <Gold.PLP.Chemscore.Hbond>
0.7680

> <Gold.PLP.Chemscore.CHOScore>
0.0000

> <Gold.PLP.Chemscore.Metal>
0.0000

> <Gold.Chemscore.Hbonds>
donor molecule, donor type, donor heavy atom, donor atom, acceptor molecule, acceptor atom, score
      P1  H  6792  6835       L1    11  0.46
      P1  H  8091  8125       L1     9  0.51

> <Gold.PLP.Chemscore.Internal.Correction>
   9.000000E+99

#       Name:                CT1002167954
#       Creating user name   hitesit
#       Creation time:       Sun Apr 16 22:58:08 2023


#       File generated by GOLD software.
#

@<TRIPOS>MOLECULE
CT1002167954|ligand_prepared|mol2|1|dock6
    29    30     1
SMALL
NO_CHARGES


@<TRIPOS>ATOM
      1 C1         192.5339 -13.4976  45.0285 C.3            1 RES1               0.0000
      2 C2         192.2673 -12.8594  46.4071 C.ar           1 RES1               0.0000
      3 C3         191.2309 -14.1720  44.6095 C.2            1 RES1               0.0000
      4 C4         192.9699 -12.3616  44.1097 C.2            1 RES1               0.0000
      5 C5         193.6564 -14.5613  45.0389 C.3            1 RES1               0.0000
      6 C6         191.0733 -12.1907  46.6594 C.ar           1 RES1               0.0000
      7 C7         193.2032 -12.9333  47.4353 C.ar           1 RES1               0.0000
      8 N8         190.4963 -13.5731  43.6289 N.am           1 RES1               0.0000
      9 O9         190.8343 -15.1926  45.1585 O.2            1 RES1               0.0000
     10 N10        192.1499 -12.0321  43.0624 N.am           1 RES1               0.0000
     11 O11        194.0081 -11.7380  44.2929 O.2            1 RES1               0.0000
     12 C12        193.8178 -15.2952  43.7170 C.3            1 RES1               0.0000
     13 C13        190.8225 -11.6191  47.8958 C.ar           1 RES1               0.0000
     14 C14        192.9505 -12.3608  48.6710 C.ar           1 RES1               0.0000
     15 C15        190.9180 -12.5659  42.7985 C.2            1 RES1               0.0000
     16 C16        191.7605 -11.7041  48.9025 C.ar           1 RES1               0.0000
     17 O17        190.2153 -12.1792  41.8691 O.2            1 RES1               0.0000
     18 H18        194.6053 -14.0708  45.2887 H              1 RES1               0.0000
     19 H19        193.4406 -15.2946  45.8258 H              1 RES1               0.0000
     20 H20        190.3242 -12.1114  45.8786 H              1 RES1               0.0000
     21 H21        194.1467 -13.4441  47.2756 H              1 RES1               0.0000
     22 H22        189.5454 -13.9046  43.5013 H              1 RES1               0.0000
     23 H23        192.4893 -11.3232  42.4201 H              1 RES1               0.0000
     24 H24        194.6181 -16.0297  43.7788 H              1 RES1               0.0000
     25 H25        192.9003 -15.8154  43.4500 H              1 RES1               0.0000
     26 H26        194.0580 -14.5989  42.9161 H              1 RES1               0.0000
     27 H27        189.8850 -11.1022  48.0725 H              1 RES1               0.0000
     28 H28        193.6919 -12.4296  49.4602 H              1 RES1               0.0000
     29 H29        191.5637 -11.2566  49.8711 H              1 RES1               0.0000
@<TRIPOS>BOND
    1    1    2 1     
    2    1    3 1     
    3    1    4 1     
    4    1    5 1     
    5    2    6 ar    
    6    2    7 ar    
    7    3    8 1     
    8    3    9 2     
    9    4   10 1     
   10    4   11 2     
   11    5   12 1     
   12    5   18 1     
   13    5   19 1     
   14    6   13 ar    
   15    6   20 1     
   16    7   14 ar    
   17    7   21 1     
   18    8   15 1     
   19    8   22 1     
   20   10   15 1     
   21   10   23 1     
   22   12   24 1     
   23   12   25 1     
   24   12   26 1     
   25   13   16 ar    
   26   13   27 1     
   27   14   16 ar    
   28   14   28 1     
   29   15   17 2     
   30   16   29 1     
@<TRIPOS>SUBSTRUCTURE
      1 RES1           1
@<TRIPOS>SET
DONOR_HYDROGENS      STATIC     ATOMS    <user>   **** ""
2 22 23
ATOM$RED        STATIC     ATOMS    COLORGROUP SYSTEM
2 22 23
@<TRIPOS>COMMENT
> <Gold.Version>
2022.3.0

> <Gold.Id.Protein>
unknown|4v3u_clean|pdb

> <Gold.Protein.RotatedTorsions>
[ 6601 6555 6556 6557 ] final  -47.39 input  119.23 | X-H torsion
[ 8042 8007 8008 8009 ] final -135.51 input   55.11 | X-H torsion
[ 8119 8084 8085 8086 ] final    4.40 input   97.66 | X-H torsion
[ 8180 8150 8151 8152 ] final   44.14 input   74.82 | X-H torsion
[ 8260 8218 8219 8220 ] final  127.33 input   76.36 | X-H torsion
[ 9557 9518 9517 9515 ] final  127.29 input   59.97 | X-H torsion
[ 6681 6635 6636 6637 ] final -108.50 input  125.14 | X-H torsion
[ 8323 8295 8296 8297 ] final  124.35 input   97.98 | X-H torsion
[ 10202 10167 10168 10169 ] final  104.05 input   38.66 | X-H torsion
[ 7961 7920 7921 7922 ] final   12.18 input   85.79 | X-H torsion
[ 6824 6784 6785 6786 ] final -149.43 input  126.65 | X-H torsion
[ 7900 7873 7874 7875 ] final  109.43 input  103.19 | X-H torsion
[ 7904 7878 7877 7874 ] final -140.69 input   60.02 | X-H torsion
[ 27201 6558 6557 6556 ] final  -98.05 input    0.00 | X-H torsion
[ 27203 7876 7875 7874 ] final  176.66 input   -0.00 | X-H torsion
[ 27206 8010 8009 8008 ] final    6.40 input    0.00 | X-H torsion
[ 27209 8087 8086 8085 ] final  157.20 input    0.00 | X-H torsion
[ 27212 8153 8152 8151 ] final   43.70 input   -0.00 | X-H torsion
[ 27219 10084 10083 10082 ] final   83.62 input    0.00 | X-H torsion
[ 27222 10170 10169 10168 ] final  -26.09 input    0.00 | X-H torsion
[ 27225 7923 7922 7921 ] final  -85.10 input   -0.00 | X-H torsion
[ 27227 6365 6364 6363 ] final  124.96 input    0.00 | X-H torsion
[ 27230 7788 7787 7786 ] final   67.64 input    0.00 | X-H torsion
[ 27232 7715 7714 7713 ] final  -84.32 input    0.00 | X-H torsion

> <Gold.Protein.ActiveResidues>
 THR404  ILE407  TYR408  ALA410  LYS411  TRP414  GLN425  TRP426  SER427  LYS428 
 LEU429  GLN430  VAL431  PHE432  ASP433  TYR453  SER462  ALA463  ILE464 

> <Gold.Protein.RotatedAtoms>
  196.2794   -8.2422   37.8358 H   0  0  0  0  0  0  0  0  0  0  0  0  # atno 6601 bound_to 6555
  197.5338   -9.4693   40.6224 H   0  0  0  0  0  0  0  0  0  0  0  0  # atno 6681 bound_to 6635
  195.8446   -5.3795   42.6467 H   0  0  0  0  0  0  0  0  0  0  0  0  # atno 6824 bound_to 6784
  197.7956   -7.0557   50.9532 H   0  0  0  0  0  0  0  0  0  0  0  0  # atno 7900 bound_to 7873
  199.3893   -9.3859   51.5590 H   0  0  0  0  0  0  0  0  0  0  0  0  # atno 7904 bound_to 7878
  195.1707   -7.7562   49.8872 H   0  0  0  0  0  0  0  0  0  0  0  0  # atno 7961 bound_to 7920
  192.8206   -8.1786   49.1694 H   0  0  0  0  0  0  0  0  0  0  0  0  # atno 8042 bound_to 8007
  190.4284   -7.6527   45.9571 H   0  0  0  0  0  0  0  0  0  0  0  0  # atno 8119 bound_to 8084
  189.7730  -10.2841   42.9140 H   0  0  0  0  0  0  0  0  0  0  0  0  # atno 8180 bound_to 8150
  187.7654   -7.8324   40.9088 H   0  0  0  0  0  0  0  0  0  0  0  0  # atno 8260 bound_to 8218
  188.1193  -10.0919   37.2996 H   0  0  0  0  0  0  0  0  0  0  0  0  # atno 8323 bound_to 8295
  186.6173  -11.2053   47.3593 H   0  0  0  0  0  0  0  0  0  0  0  0  # atno 9557 bound_to 9518
  188.8811   -5.2585   43.8084 H   0  0  0  0  0  0  0  0  0  0  0  0  # atno 10202 bound_to 10167
  195.8088   -9.9142   37.6234 LP  0  0  0  0  0  0  0  0  0  0  0  0  # atno 27200 bound_to 6555
  196.9851   -6.8740   41.1107 LP  0  0  0  0  0  0  0  0  0  0  0  0  # atno 27201 bound_to 6558
  196.6698   -8.1604   42.2269 LP  0  0  0  0  0  0  0  0  0  0  0  0  # atno 27202 bound_to 6558
  194.8080  -10.5509   48.6729 LP  0  0  0  0  0  0  0  0  0  0  0  0  # atno 27203 bound_to 7876
  196.3647  -10.3274   47.9472 LP  0  0  0  0  0  0  0  0  0  0  0  0  # atno 27204 bound_to 7876
  193.4619   -9.1270   47.8465 LP  0  0  0  0  0  0  0  0  0  0  0  0  # atno 27205 bound_to 8007
  193.0940   -9.4491   45.8063 LP  0  0  0  0  0  0  0  0  0  0  0  0  # atno 27206 bound_to 8010
  191.6913   -9.9626   44.9296 LP  0  0  0  0  0  0  0  0  0  0  0  0  # atno 27207 bound_to 8010
  190.2515   -8.9329   47.1339 LP  0  0  0  0  0  0  0  0  0  0  0  0  # atno 27208 bound_to 8084
  189.1802   -6.9041   43.0452 LP  0  0  0  0  0  0  0  0  0  0  0  0  # atno 27209 bound_to 8087
  188.2219   -7.1839   44.4607 LP  0  0  0  0  0  0  0  0  0  0  0  0  # atno 27210 bound_to 8087
  189.9422   -8.7247   43.6844 LP  0  0  0  0  0  0  0  0  0  0  0  0  # atno 27211 bound_to 8150
  189.0057  -11.0887   41.0186 LP  0  0  0  0  0  0  0  0  0  0  0  0  # atno 27212 bound_to 8153
  188.7703  -10.6929   39.3489 LP  0  0  0  0  0  0  0  0  0  0  0  0  # atno 27213 bound_to 8153
  189.0374   -8.5469   39.9489 LP  0  0  0  0  0  0  0  0  0  0  0  0  # atno 27214 bound_to 8218
  185.7529  -12.4904   47.8592 LP  0  0  0  0  0  0  0  0  0  0  0  0  # atno 27215 bound_to 9518
  185.9142  -11.1849   48.8269 LP  0  0  0  0  0  0  0  0  0  0  0  0  # atno 27216 bound_to 9518
  198.1283   -9.0832   39.0240 LP  0  0  0  0  0  0  0  0  0  0  0  0  # atno 27217 bound_to 6635
  187.2574   -8.5677   37.3391 LP  0  0  0  0  0  0  0  0  0  0  0  0  # atno 27218 bound_to 8295
  187.0804   -7.5148   48.0324 LP  0  0  0  0  0  0  0  0  0  0  0  0  # atno 27219 bound_to 10084
  188.7557   -7.3690   47.6178 LP  0  0  0  0  0  0  0  0  0  0  0  0  # atno 27220 bound_to 10084
  187.1753   -4.8714   43.8406 LP  0  0  0  0  0  0  0  0  0  0  0  0  # atno 27221 bound_to 10167
  188.7035   -6.2051   41.2820 LP  0  0  0  0  0  0  0  0  0  0  0  0  # atno 27222 bound_to 10170
  187.2834   -6.2441   40.2913 LP  0  0  0  0  0  0  0  0  0  0  0  0  # atno 27223 bound_to 10170
  195.7684   -9.2327   50.6138 LP  0  0  0  0  0  0  0  0  0  0  0  0  # atno 27224 bound_to 7920
  190.9830   -7.8991   50.2911 LP  0  0  0  0  0  0  0  0  0  0  0  0  # atno 27225 bound_to 7923
  192.1161   -6.5934   50.1858 LP  0  0  0  0  0  0  0  0  0  0  0  0  # atno 27226 bound_to 7923
  199.6689  -11.0437   38.4294 LP  0  0  0  0  0  0  0  0  0  0  0  0  # atno 27227 bound_to 6365
  197.9780  -11.2405   38.7492 LP  0  0  0  0  0  0  0  0  0  0  0  0  # atno 27228 bound_to 6365
  197.4633   -5.0034   42.1002 LP  0  0  0  0  0  0  0  0  0  0  0  0  # atno 27229 bound_to 6784
  196.5654   -5.7431   47.5914 LP  0  0  0  0  0  0  0  0  0  0  0  0  # atno 27230 bound_to 7788
  195.3268   -6.6980   48.3359 LP  0  0  0  0  0  0  0  0  0  0  0  0  # atno 27231 bound_to 7788
  195.0389   -7.1422   51.4807 LP  0  0  0  0  0  0  0  0  0  0  0  0  # atno 27232 bound_to 7715
  194.1425   -5.7810   50.8945 LP  0  0  0  0  0  0  0  0  0  0  0  0  # atno 27233 bound_to 7715
  196.8168   -6.3684   49.6857 LP  0  0  0  0  0  0  0  0  0  0  0  0  # atno 27234 bound_to 7873
  197.9654  -10.1712   51.6236 LP  0  0  0  0  0  0  0  0  0  0  0  0  # atno 27235 bound_to 7878
  198.0012   -8.5386   51.6186 LP  0  0  0  0  0  0  0  0  0  0  0  0  # atno 27236 bound_to 7878

> <Gold.Score>
     Fitness  S(hb_ext) S(vdw_ext)  S(hb_int)    S(int)      intcor
     28.73       0.30      20.92       0.00      -0.33      -0.76

> <Gold.Goldscore.Fitness>
28.7337

> <Gold.Goldscore.Internal.Vdw>
-0.6597

> <Gold.Goldscore.Internal.Torsion>
-0.4303

> <Gold.Goldscore.External.Vdw>
20.9168

> <Gold.Goldscore.Internal.HBond>
0.0000

> <Gold.Goldscore.External.HBond>
0.2983

> <Gold.Goldscore.Internal.Correction>
-0.7650

> <Gold.Goldscore.Hbonds>
donor molecule, donor type, donor heavy atom, donor atom, acceptor molecule, acceptor atom, score
      P1  H  6792  6835       L1    11  0.01
      P1  H  8150  8180       L1    17  0.12

> <Gold.Goldscore.Internal.Vdw.Weighted>
-0.6597

> <Gold.Goldscore.Internal.Torsion.Weighted>
-0.4303

> <Gold.Goldscore.External.Vdw.Weighted>
28.7605

> <Gold.Goldscore.Internal.HBond.Weighted>
0.0000

> <Gold.Goldscore.External.HBond.Weighted>
0.2983

> <Gold.Goldscore.Internal.Correction.Weighted>
-0.7650

> <Gold.Rescore>
     Score     S(PLP)   S(hbond)     S(cho)   S(metal)  DE(clash)   DE(tors)     intcor
     29.12     -22.63       2.64       0.00       0.00       0.00       0.72       ----

> <Gold.PLP.Fitness>
29.1233

> <Gold.PLP.PLP>
-22.6342

> <Gold.PLP.part.hbond>
-4.0000

> <Gold.PLP.part.metal>
0.0000

> <Gold.PLP.part.buried>
-4.8708

> <Gold.PLP.part.nonpolar>
-13.8704

> <Gold.PLP.part.repulsive>
0.4614

> <Gold.PLP.ligand.clash>
0.0000

> <Gold.PLP.ligand.torsion>
0.7154

> <Gold.PLP.Chemscore.Hbond>
2.6400

> <Gold.PLP.Chemscore.CHOScore>
0.0000

> <Gold.PLP.Chemscore.Metal>
0.0000

> <Gold.Chemscore.Hbonds>
donor molecule, donor type, donor heavy atom, donor atom, acceptor molecule, acceptor atom, score
      P1  H  6792  6835       L1    11  0.46
      P1  H  8150  8180       L1    17  0.38

> <Gold.PLP.Chemscore.Internal.Correction>
   9.000000E+99

#       Name:                CT1002167954
#       Creating user name   hitesit
#       Creation time:       Sun Apr 16 22:58:09 2023


#       File generated by GOLD software.
#

@<TRIPOS>MOLECULE
CT1002167954|ligand_prepared|mol2|1|dock9
    29    30     1
SMALL
NO_CHARGES


@<TRIPOS>ATOM
      1 C1         189.3182 -11.2479  50.6198 C.3            1 RES1               0.0000
      2 C2         189.3390 -10.0573  51.6001 C.ar           1 RES1               0.0000
      3 C3         189.6802 -10.6814  49.2500 C.2            1 RES1               0.0000
      4 C4         190.3214 -12.2617  51.1587 C.2            1 RES1               0.0000
      5 C5         187.9426 -11.9465  50.5145 C.3            1 RES1               0.0000
      6 C6         189.9214  -8.8477  51.2335 C.ar           1 RES1               0.0000
      7 C7         188.7785 -10.1524  52.8710 C.ar           1 RES1               0.0000
      8 N8         190.9251 -10.9522  48.7632 N.am           1 RES1               0.0000
      9 O9         188.8997  -9.9749  48.6241 O.2            1 RES1               0.0000
     10 N10        191.4406 -12.5176  50.4106 N.am           1 RES1               0.0000
     11 O11        190.1610 -12.8289  52.2325 O.2            1 RES1               0.0000
     12 C12        187.9193 -13.1104  49.5362 C.3            1 RES1               0.0000
     13 C13        189.9401  -7.7711  52.1047 C.ar           1 RES1               0.0000
     14 C14        188.7985  -9.0746  53.7408 C.ar           1 RES1               0.0000
     15 C15        191.8029 -11.8861  49.2521 C.2            1 RES1               0.0000
     16 C16        189.3784  -7.8837  53.3586 C.ar           1 RES1               0.0000
     17 O17        192.8526 -12.1329  48.6652 O.2            1 RES1               0.0000
     18 H18        187.6564 -12.3143  51.5076 H              1 RES1               0.0000
     19 H19        187.1943 -11.2077  50.2021 H              1 RES1               0.0000
     20 H20        190.3706  -8.7411  50.2517 H              1 RES1               0.0000
     21 H21        188.3178 -11.0799  53.1936 H              1 RES1               0.0000
     22 H22        191.2316 -10.4102  47.9616 H              1 RES1               0.0000
     23 H23        192.0609 -13.2465  50.7485 H              1 RES1               0.0000
     24 H24        186.9314 -13.5647  49.5007 H              1 RES1               0.0000
     25 H25        188.1748 -12.7760  48.5328 H              1 RES1               0.0000
     26 H26        188.6341 -13.8760  49.8306 H              1 RES1               0.0000
     27 H27        190.3990  -6.8365  51.7996 H              1 RES1               0.0000
     28 H28        188.3558  -9.1679  54.7270 H              1 RES1               0.0000
     29 H29        189.3929  -7.0401  54.0408 H              1 RES1               0.0000
@<TRIPOS>BOND
    1    1    2 1     
    2    1    3 1     
    3    1    4 1     
    4    1    5 1     
    5    2    6 ar    
    6    2    7 ar    
    7    3    8 1     
    8    3    9 2     
    9    4   10 1     
   10    4   11 2     
   11    5   12 1     
   12    5   18 1     
   13    5   19 1     
   14    6   13 ar    
   15    6   20 1     
   16    7   14 ar    
   17    7   21 1     
   18    8   15 1     
   19    8   22 1     
   20   10   15 1     
   21   10   23 1     
   22   12   24 1     
   23   12   25 1     
   24   12   26 1     
   25   13   16 ar    
   26   13   27 1     
   27   14   16 ar    
   28   14   28 1     
   29   15   17 2     
   30   16   29 1     
@<TRIPOS>SUBSTRUCTURE
      1 RES1           1
@<TRIPOS>SET
DONOR_HYDROGENS      STATIC     ATOMS    <user>   **** ""
2 22 23
ATOM$RED        STATIC     ATOMS    COLORGROUP SYSTEM
2 22 23
@<TRIPOS>COMMENT
> <Gold.Version>
2022.3.0

> <Gold.Id.Protein>
unknown|4v3u_clean|pdb

> <Gold.Protein.RotatedTorsions>
[ 6601 6555 6556 6557 ] final   69.62 input  119.23 | X-H torsion
[ 8042 8007 8008 8009 ] final -132.28 input   55.11 | X-H torsion
[ 8119 8084 8085 8086 ] final -127.28 input   97.66 | X-H torsion
[ 8180 8150 8151 8152 ] final   87.38 input   74.82 | X-H torsion
[ 8260 8218 8219 8220 ] final  168.12 input   76.36 | X-H torsion
[ 9557 9518 9517 9515 ] final -135.71 input   59.97 | X-H torsion
[ 6681 6635 6636 6637 ] final  104.94 input  125.14 | X-H torsion
[ 8323 8295 8296 8297 ] final  140.36 input   97.98 | X-H torsion
[ 10202 10167 10168 10169 ] final  -71.37 input   38.66 | X-H torsion
[ 7961 7920 7921 7922 ] final  171.90 input   85.79 | X-H torsion
[ 6824 6784 6785 6786 ] final -159.60 input  126.65 | X-H torsion
[ 7900 7873 7874 7875 ] final -136.64 input  103.19 | X-H torsion
[ 7904 7878 7877 7874 ] final  -46.88 input   60.02 | X-H torsion
[ 27201 6558 6557 6556 ] final  152.58 input    0.00 | X-H torsion
[ 27203 7876 7875 7874 ] final -161.93 input   -0.00 | X-H torsion
[ 27206 8010 8009 8008 ] final  -63.20 input    0.00 | X-H torsion
[ 27209 8087 8086 8085 ] final -116.57 input    0.00 | X-H torsion
[ 27212 8153 8152 8151 ] final   28.00 input   -0.00 | X-H torsion
[ 27219 10084 10083 10082 ] final  152.96 input    0.00 | X-H torsion
[ 27222 10170 10169 10168 ] final  -41.55 input    0.00 | X-H torsion
[ 27225 7923 7922 7921 ] final   99.54 input   -0.00 | X-H torsion
[ 27227 6365 6364 6363 ] final   30.12 input    0.00 | X-H torsion
[ 27230 7788 7787 7786 ] final  113.57 input    0.00 | X-H torsion
[ 27232 7715 7714 7713 ] final  100.14 input    0.00 | X-H torsion

> <Gold.Protein.ActiveResidues>
 THR404  ILE407  TYR408  ALA410  LYS411  TRP414  GLN425  TRP426  SER427  LYS428 
 LEU429  GLN430  VAL431  PHE432  ASP433  TYR453  SER462  ALA463  ILE464 

> <Gold.Protein.RotatedAtoms>
  196.6881   -9.6990   37.7539 H   0  0  0  0  0  0  0  0  0  0  0  0  # atno 6601 bound_to 6555
  198.3021   -9.5478   39.1113 H   0  0  0  0  0  0  0  0  0  0  0  0  # atno 6681 bound_to 6635
  195.8869   -5.5294   42.6239 H   0  0  0  0  0  0  0  0  0  0  0  0  # atno 6824 bound_to 6784
  197.7668   -6.3532   49.6675 H   0  0  0  0  0  0  0  0  0  0  0  0  # atno 7900 bound_to 7873
  198.4125   -8.4299   51.5986 H   0  0  0  0  0  0  0  0  0  0  0  0  # atno 7904 bound_to 7878
  195.7048   -9.0949   50.8845 H   0  0  0  0  0  0  0  0  0  0  0  0  # atno 7961 bound_to 7920
  192.7839   -8.2122   49.1738 H   0  0  0  0  0  0  0  0  0  0  0  0  # atno 8042 bound_to 8007
  190.8468   -8.9993   46.7423 H   0  0  0  0  0  0  0  0  0  0  0  0  # atno 8119 bound_to 8084
  190.3977  -10.1401   43.0296 H   0  0  0  0  0  0  0  0  0  0  0  0  # atno 8180 bound_to 8150
  187.8508   -8.4197   41.0693 H   0  0  0  0  0  0  0  0  0  0  0  0  # atno 8260 bound_to 8218
  188.3011   -9.9518   37.3940 H   0  0  0  0  0  0  0  0  0  0  0  0  # atno 8323 bound_to 8295
  186.1229  -10.9335   48.6434 H   0  0  0  0  0  0  0  0  0  0  0  0  # atno 9557 bound_to 9518
  187.1415   -4.9089   43.7828 H   0  0  0  0  0  0  0  0  0  0  0  0  # atno 10202 bound_to 10167
  195.4126   -8.5020   37.7028 LP  0  0  0  0  0  0  0  0  0  0  0  0  # atno 27200 bound_to 6555
  197.5718   -7.7728   42.0303 LP  0  0  0  0  0  0  0  0  0  0  0  0  # atno 27201 bound_to 6558
  196.0832   -7.2616   41.3073 LP  0  0  0  0  0  0  0  0  0  0  0  0  # atno 27202 bound_to 6558
  194.7361  -10.3396   48.4410 LP  0  0  0  0  0  0  0  0  0  0  0  0  # atno 27203 bound_to 7876
  196.4366  -10.5386   48.1791 LP  0  0  0  0  0  0  0  0  0  0  0  0  # atno 27204 bound_to 7876
  193.4976   -9.0944   47.8422 LP  0  0  0  0  0  0  0  0  0  0  0  0  # atno 27205 bound_to 8007
  192.7699   -9.0364   44.9685 LP  0  0  0  0  0  0  0  0  0  0  0  0  # atno 27206 bound_to 8010
  192.0154  -10.3753   45.7673 LP  0  0  0  0  0  0  0  0  0  0  0  0  # atno 27207 bound_to 8010
  189.8431   -7.6184   46.3674 LP  0  0  0  0  0  0  0  0  0  0  0  0  # atno 27208 bound_to 8084
  188.0938   -7.3432   43.2129 LP  0  0  0  0  0  0  0  0  0  0  0  0  # atno 27209 bound_to 8087
  189.3083   -6.7447   44.2930 LP  0  0  0  0  0  0  0  0  0  0  0  0  # atno 27210 bound_to 8087
  189.3322   -8.8653   43.5715 LP  0  0  0  0  0  0  0  0  0  0  0  0  # atno 27211 bound_to 8150
  189.2333  -11.0809   40.9548 LP  0  0  0  0  0  0  0  0  0  0  0  0  # atno 27212 bound_to 8153
  188.5427  -10.7007   39.4126 LP  0  0  0  0  0  0  0  0  0  0  0  0  # atno 27213 bound_to 8153
  188.9537   -7.9714   39.7916 LP  0  0  0  0  0  0  0  0  0  0  0  0  # atno 27214 bound_to 8218
  186.5445  -11.5314   47.1897 LP  0  0  0  0  0  0  0  0  0  0  0  0  # atno 27215 bound_to 9518
  185.6204  -12.4176   48.2033 LP  0  0  0  0  0  0  0  0  0  0  0  0  # atno 27216 bound_to 9518
  197.3802   -9.0068   40.4951 LP  0  0  0  0  0  0  0  0  0  0  0  0  # atno 27217 bound_to 6635
  187.0819   -8.7029   37.2480 LP  0  0  0  0  0  0  0  0  0  0  0  0  # atno 27218 bound_to 8295
  187.4225   -7.3897   47.1168 LP  0  0  0  0  0  0  0  0  0  0  0  0  # atno 27219 bound_to 10084
  188.4136   -7.4941   48.5334 LP  0  0  0  0  0  0  0  0  0  0  0  0  # atno 27220 bound_to 10084
  188.8628   -5.2104   43.8655 LP  0  0  0  0  0  0  0  0  0  0  0  0  # atno 27221 bound_to 10167
  188.8061   -6.1570   41.0783 LP  0  0  0  0  0  0  0  0  0  0  0  0  # atno 27222 bound_to 10170
  187.1808   -6.2921   40.4950 LP  0  0  0  0  0  0  0  0  0  0  0  0  # atno 27223 bound_to 10170
  195.2522   -7.9389   49.6499 LP  0  0  0  0  0  0  0  0  0  0  0  0  # atno 27224 bound_to 7920
  192.0890   -6.5786   50.1228 LP  0  0  0  0  0  0  0  0  0  0  0  0  # atno 27225 bound_to 7923
  191.0102   -7.9138   50.3542 LP  0  0  0  0  0  0  0  0  0  0  0  0  # atno 27226 bound_to 7923
  198.9074  -11.9267   38.9462 LP  0  0  0  0  0  0  0  0  0  0  0  0  # atno 27227 bound_to 6365
  198.7395  -10.3576   38.2324 LP  0  0  0  0  0  0  0  0  0  0  0  0  # atno 27228 bound_to 6365
  197.4223   -4.8579   42.1222 LP  0  0  0  0  0  0  0  0  0  0  0  0  # atno 27229 bound_to 6784
  196.6978   -6.4057   47.5754 LP  0  0  0  0  0  0  0  0  0  0  0  0  # atno 27230 bound_to 7788
  195.1944   -6.0354   48.3519 LP  0  0  0  0  0  0  0  0  0  0  0  0  # atno 27231 bound_to 7788
  194.1870   -5.7767   50.8442 LP  0  0  0  0  0  0  0  0  0  0  0  0  # atno 27232 bound_to 7715
  194.9944   -7.1465   51.5311 LP  0  0  0  0  0  0  0  0  0  0  0  0  # atno 27233 bound_to 7715
  196.8454   -7.0664   50.9633 LP  0  0  0  0  0  0  0  0  0  0  0  0  # atno 27234 bound_to 7873
  199.2901   -9.8000   51.5664 LP  0  0  0  0  0  0  0  0  0  0  0  0  # atno 27235 bound_to 7878
  197.6602   -9.8724   51.6359 LP  0  0  0  0  0  0  0  0  0  0  0  0  # atno 27236 bound_to 7878

> <Gold.Score>
     Fitness  S(hb_ext) S(vdw_ext)  S(hb_int)    S(int)      intcor
     27.45       0.88      20.71       0.00      -1.91      -0.76

> <Gold.Goldscore.Fitness>
27.4527

> <Gold.Goldscore.Internal.Vdw>
-2.2956

> <Gold.Goldscore.Internal.Torsion>
-0.3674

> <Gold.Goldscore.External.Vdw>
20.7107

> <Gold.Goldscore.Internal.HBond>
0.0000

> <Gold.Goldscore.External.HBond>
0.8818

> <Gold.Goldscore.Internal.Correction>
-0.7566

> <Gold.Goldscore.Hbonds>
donor molecule, donor type, donor heavy atom, donor atom, acceptor molecule, acceptor atom, score
      L1  H     8    22       P1  8010  0.44

> <Gold.Goldscore.Internal.Vdw.Weighted>
-2.2956

> <Gold.Goldscore.Internal.Torsion.Weighted>
-0.3674

> <Gold.Goldscore.External.Vdw.Weighted>
28.4772

> <Gold.Goldscore.Internal.HBond.Weighted>
0.0000

> <Gold.Goldscore.External.HBond.Weighted>
0.8818

> <Gold.Goldscore.Internal.Correction.Weighted>
-0.7566

> <Gold.Rescore>
     Score     S(PLP)   S(hbond)     S(cho)   S(metal)  DE(clash)   DE(tors)     intcor
     37.96     -37.31       0.91       0.00       0.00       2.04       0.02       ----

> <Gold.PLP.Fitness>
37.9581

> <Gold.PLP.PLP>
-37.3147

> <Gold.PLP.part.hbond>
-1.9359

> <Gold.PLP.part.metal>
0.0000

> <Gold.PLP.part.buried>
-7.2307

> <Gold.PLP.part.nonpolar>
-29.6863

> <Gold.PLP.part.repulsive>
0.3134

> <Gold.PLP.ligand.clash>
2.0444

> <Gold.PLP.ligand.torsion>
0.0241

> <Gold.PLP.Chemscore.Hbond>
0.9120

> <Gold.PLP.Chemscore.CHOScore>
0.0000

> <Gold.PLP.Chemscore.Metal>
0.0000

> <Gold.PLP.Chemscore.Internal.Correction>
   9.000000E+99

#       Name:                CT1002167954
#       Creating user name   hitesit
#       Creation time:       Sun Apr 16 22:58:10 2023


#       File generated by GOLD software.
#

@<TRIPOS>MOLECULE
CT1002167954|ligand_prepared|mol2|1|dock10
    29    30     1
SMALL
NO_CHARGES


@<TRIPOS>ATOM
      1 C1         189.9249 -12.6333  49.1094 C.3            1 RES1               0.0000
      2 C2         190.5263 -12.9629  47.7280 C.ar           1 RES1               0.0000
      3 C3         190.6410 -11.3785  49.6002 C.2            1 RES1               0.0000
      4 C4         188.4273 -12.4493  48.8898 C.2            1 RES1               0.0000
      5 C5         190.1199 -13.7523  50.1589 C.3            1 RES1               0.0000
      6 C6         190.0750 -14.0613  47.0024 C.ar           1 RES1               0.0000
      7 C7         191.5294 -12.1776  47.1659 C.ar           1 RES1               0.0000
      8 N8         189.9463 -10.2050  49.5779 N.am           1 RES1               0.0000
      9 O9         191.8101 -11.4109  49.9640 O.2            1 RES1               0.0000
     10 N10        187.8965 -11.2029  49.0959 N.am           1 RES1               0.0000
     11 O11        187.7051 -13.3685  48.5240 O.2            1 RES1               0.0000
     12 C12        189.6202 -13.3848  51.5472 C.3            1 RES1               0.0000
     13 C13        190.6051 -14.3622  45.7587 C.ar           1 RES1               0.0000
     14 C14        192.0583 -12.4804  45.9221 C.ar           1 RES1               0.0000
     15 C15        188.5933 -10.0653  49.4003 C.2            1 RES1               0.0000
     16 C16        191.5966 -13.5719  45.2176 C.ar           1 RES1               0.0000
     17 O17        188.0519  -8.9697  49.5164 O.2            1 RES1               0.0000
     18 H18        189.5902 -14.6510  49.8194 H              1 RES1               0.0000
     19 H19        191.1877 -13.9959  50.2210 H              1 RES1               0.0000
     20 H20        189.2971 -14.6962  47.4132 H              1 RES1               0.0000
     21 H21        191.9087 -11.3147  47.7027 H              1 RES1               0.0000
     22 H22        190.4825  -9.3526  49.7050 H              1 RES1               0.0000
     23 H23        186.8885 -11.1150  49.0152 H              1 RES1               0.0000
     24 H24        189.7809 -14.2043  52.2445 H              1 RES1               0.0000
     25 H25        190.1436 -12.5095  51.9264 H              1 RES1               0.0000
     26 H26        188.5556 -13.1607  51.5271 H              1 RES1               0.0000
     27 H27        190.2393 -15.2230  45.2088 H              1 RES1               0.0000
     28 H28        192.8390 -11.8560  45.5004 H              1 RES1               0.0000
     29 H29        192.0114 -13.8076  44.2431 H              1 RES1               0.0000
@<TRIPOS>BOND
    1    1    2 1     
    2    1    3 1     
    3    1    4 1     
    4    1    5 1     
    5    2    6 ar    
    6    2    7 ar    
    7    3    8 1     
    8    3    9 2     
    9    4   10 1     
   10    4   11 2     
   11    5   12 1     
   12    5   18 1     
   13    5   19 1     
   14    6   13 ar    
   15    6   20 1     
   16    7   14 ar    
   17    7   21 1     
   18    8   15 1     
   19    8   22 1     
   20   10   15 1     
   21   10   23 1     
   22   12   24 1     
   23   12   25 1     
   24   12   26 1     
   25   13   16 ar    
   26   13   27 1     
   27   14   16 ar    
   28   14   28 1     
   29   15   17 2     
   30   16   29 1     
@<TRIPOS>SUBSTRUCTURE
      1 RES1           1
@<TRIPOS>SET
DONOR_HYDROGENS      STATIC     ATOMS    <user>   **** ""
2 22 23
ATOM$RED        STATIC     ATOMS    COLORGROUP SYSTEM
2 22 23
@<TRIPOS>COMMENT
> <Gold.Version>
2022.3.0

> <Gold.Id.Protein>
unknown|4v3u_clean|pdb

> <Gold.Protein.RotatedTorsions>
[ 6601 6555 6556 6557 ] final  -54.78 input  119.23 | X-H torsion
[ 8042 8007 8008 8009 ] final  -63.22 input   55.11 | X-H torsion
[ 8119 8084 8085 8086 ] final  125.65 input   97.66 | X-H torsion
[ 8180 8150 8151 8152 ] final -144.70 input   74.82 | X-H torsion
[ 8260 8218 8219 8220 ] final  -58.69 input   76.36 | X-H torsion
[ 9557 9518 9517 9515 ] final   23.94 input   59.97 | X-H torsion
[ 6681 6635 6636 6637 ] final   12.57 input  125.14 | X-H torsion
[ 8323 8295 8296 8297 ] final  -34.27 input   97.98 | X-H torsion
[ 10202 10167 10168 10169 ] final  167.91 input   38.66 | X-H torsion
[ 7961 7920 7921 7922 ] final   56.21 input   85.79 | X-H torsion
[ 6824 6784 6785 6786 ] final   91.32 input  126.65 | X-H torsion
[ 7900 7873 7874 7875 ] final  136.83 input  103.19 | X-H torsion
[ 7904 7878 7877 7874 ] final  -87.69 input   60.02 | X-H torsion
[ 27201 6558 6557 6556 ] final -146.23 input    0.00 | X-H torsion
[ 27203 7876 7875 7874 ] final -101.37 input   -0.00 | X-H torsion
[ 27206 8010 8009 8008 ] final  154.68 input    0.00 | X-H torsion
[ 27209 8087 8086 8085 ] final  153.32 input    0.00 | X-H torsion
[ 27212 8153 8152 8151 ] final -147.54 input   -0.00 | X-H torsion
[ 27219 10084 10083 10082 ] final    4.41 input    0.00 | X-H torsion
[ 27222 10170 10169 10168 ] final  147.36 input    0.00 | X-H torsion
[ 27225 7923 7922 7921 ] final   67.01 input   -0.00 | X-H torsion
[ 27227 6365 6364 6363 ] final   60.09 input    0.00 | X-H torsion
[ 27230 7788 7787 7786 ] final  -43.60 input    0.00 | X-H torsion
[ 27232 7715 7714 7713 ] final  139.17 input    0.00 | X-H torsion

> <Gold.Protein.ActiveResidues>
 THR404  ILE407  TYR408  ALA410  LYS411  TRP414  GLN425  TRP426  SER427  LYS428 
 LEU429  GLN430  VAL431  PHE432  ASP433  TYR453  SER462  ALA463  ILE464 

> <Gold.Protein.RotatedAtoms>
  196.1680   -8.2173   37.8260 H   0  0  0  0  0  0  0  0  0  0  0  0  # atno 6601 bound_to 6555
  197.6746   -8.4844   39.4434 H   0  0  0  0  0  0  0  0  0  0  0  0  # atno 6681 bound_to 6635
  197.2155   -5.8513   42.1532 H   0  0  0  0  0  0  0  0  0  0  0  0  # atno 6824 bound_to 6784
  198.0733   -6.9127   50.6815 H   0  0  0  0  0  0  0  0  0  0  0  0  # atno 7900 bound_to 7873
  199.0334   -8.6302   51.5725 H   0  0  0  0  0  0  0  0  0  0  0  0  # atno 7904 bound_to 7878
  195.1833   -7.7198   50.5535 H   0  0  0  0  0  0  0  0  0  0  0  0  # atno 7961 bound_to 7920
  192.4137   -9.0667   48.7920 H   0  0  0  0  0  0  0  0  0  0  0  0  # atno 8042 bound_to 8007
  189.6374   -8.3359   47.0901 H   0  0  0  0  0  0  0  0  0  0  0  0  # atno 8119 bound_to 8084
  190.0785   -8.7287   43.6858 H   0  0  0  0  0  0  0  0  0  0  0  0  # atno 8180 bound_to 8150
  189.0344   -8.6329   39.9854 H   0  0  0  0  0  0  0  0  0  0  0  0  # atno 8260 bound_to 8218
  187.0172   -8.7346   37.1927 H   0  0  0  0  0  0  0  0  0  0  0  0  # atno 8323 bound_to 8295
  185.8842  -12.4506   47.6241 H   0  0  0  0  0  0  0  0  0  0  0  0  # atno 9557 bound_to 9518
  188.5428   -4.5458   44.3185 H   0  0  0  0  0  0  0  0  0  0  0  0  # atno 10202 bound_to 10167
  195.9167   -9.9383   37.6330 LP  0  0  0  0  0  0  0  0  0  0  0  0  # atno 27200 bound_to 6555
  197.5619   -7.1217   41.4360 LP  0  0  0  0  0  0  0  0  0  0  0  0  # atno 27201 bound_to 6558
  196.0931   -7.9127   41.9016 LP  0  0  0  0  0  0  0  0  0  0  0  0  # atno 27202 bound_to 6558
  195.1369   -9.9027   47.7999 LP  0  0  0  0  0  0  0  0  0  0  0  0  # atno 27203 bound_to 7876
  196.0358  -10.9756   48.8202 LP  0  0  0  0  0  0  0  0  0  0  0  0  # atno 27204 bound_to 7876
  193.8568   -8.2651   48.2128 LP  0  0  0  0  0  0  0  0  0  0  0  0  # atno 27205 bound_to 8007
  191.7216  -10.2496   45.3048 LP  0  0  0  0  0  0  0  0  0  0  0  0  # atno 27206 bound_to 8010
  193.0638   -9.1621   45.4311 LP  0  0  0  0  0  0  0  0  0  0  0  0  # atno 27207 bound_to 8010
  191.0237   -8.2660   46.0279 LP  0  0  0  0  0  0  0  0  0  0  0  0  # atno 27208 bound_to 8084
  189.2225   -6.8834   43.0804 LP  0  0  0  0  0  0  0  0  0  0  0  0  # atno 27209 bound_to 8087
  188.1796   -7.2045   44.4255 LP  0  0  0  0  0  0  0  0  0  0  0  0  # atno 27210 bound_to 8087
  189.6439  -10.2436   42.9307 LP  0  0  0  0  0  0  0  0  0  0  0  0  # atno 27211 bound_to 8150
  188.6053  -10.6970   39.3884 LP  0  0  0  0  0  0  0  0  0  0  0  0  # atno 27212 bound_to 8153
  189.1707  -11.0846   40.9791 LP  0  0  0  0  0  0  0  0  0  0  0  0  # atno 27213 bound_to 8153
  187.7940   -7.7626   40.8537 LP  0  0  0  0  0  0  0  0  0  0  0  0  # atno 27214 bound_to 8218
  185.7780  -11.4164   48.8761 LP  0  0  0  0  0  0  0  0  0  0  0  0  # atno 27215 bound_to 9518
  186.6274  -11.0050   47.5434 LP  0  0  0  0  0  0  0  0  0  0  0  0  # atno 27216 bound_to 9518
  197.9911  -10.0422   40.1718 LP  0  0  0  0  0  0  0  0  0  0  0  0  # atno 27217 bound_to 6635
  188.3208   -9.8774   37.4422 LP  0  0  0  0  0  0  0  0  0  0  0  0  # atno 27218 bound_to 8295
  187.9712   -7.5374   48.6842 LP  0  0  0  0  0  0  0  0  0  0  0  0  # atno 27219 bound_to 10084
  187.8649   -7.3465   46.9660 LP  0  0  0  0  0  0  0  0  0  0  0  0  # atno 27220 bound_to 10084
  187.5034   -5.5627   43.3458 LP  0  0  0  0  0  0  0  0  0  0  0  0  # atno 27221 bound_to 10167
  187.2331   -6.2648   40.3740 LP  0  0  0  0  0  0  0  0  0  0  0  0  # atno 27222 bound_to 10170
  188.7538   -6.1844   41.1993 LP  0  0  0  0  0  0  0  0  0  0  0  0  # atno 27223 bound_to 10170
  195.7562   -9.2679   49.9699 LP  0  0  0  0  0  0  0  0  0  0  0  0  # atno 27224 bound_to 7920
  192.1964   -6.7664   50.5570 LP  0  0  0  0  0  0  0  0  0  0  0  0  # atno 27225 bound_to 7923
  190.9028   -7.7260   49.9200 LP  0  0  0  0  0  0  0  0  0  0  0  0  # atno 27226 bound_to 7923
  199.3235  -11.8057   38.8335 LP  0  0  0  0  0  0  0  0  0  0  0  0  # atno 27227 bound_to 6365
  198.3234  -10.4786   38.3451 LP  0  0  0  0  0  0  0  0  0  0  0  0  # atno 27228 bound_to 6365
  196.1323   -4.5454   42.5793 LP  0  0  0  0  0  0  0  0  0  0  0  0  # atno 27229 bound_to 6784
  195.3054   -5.7227   48.2663 LP  0  0  0  0  0  0  0  0  0  0  0  0  # atno 27230 bound_to 7788
  196.5868   -6.7184   47.6610 LP  0  0  0  0  0  0  0  0  0  0  0  0  # atno 27231 bound_to 7788
  194.6478   -5.9116   50.5211 LP  0  0  0  0  0  0  0  0  0  0  0  0  # atno 27232 bound_to 7715
  194.5337   -7.0115   51.8541 LP  0  0  0  0  0  0  0  0  0  0  0  0  # atno 27233 bound_to 7715
  196.5408   -6.5104   49.9557 LP  0  0  0  0  0  0  0  0  0  0  0  0  # atno 27234 bound_to 7873
  198.8030  -10.2411   51.5880 LP  0  0  0  0  0  0  0  0  0  0  0  0  # atno 27235 bound_to 7878
  197.5220   -9.2297   51.6404 LP  0  0  0  0  0  0  0  0  0  0  0  0  # atno 27236 bound_to 7878

> <Gold.Score>
     Fitness  S(hb_ext) S(vdw_ext)  S(hb_int)    S(int)      intcor
     27.05       2.42      20.27       0.00      -3.24      -0.76

> <Gold.Goldscore.Fitness>
27.0517

> <Gold.Goldscore.Internal.Vdw>
-3.5960

> <Gold.Goldscore.Internal.Torsion>
-0.3996

> <Gold.Goldscore.External.Vdw>
20.2679

> <Gold.Goldscore.Internal.HBond>
0.0000

> <Gold.Goldscore.External.HBond>
2.4223

> <Gold.Goldscore.Internal.Correction>
-0.7566

> <Gold.Goldscore.Hbonds>
donor molecule, donor type, donor heavy atom, donor atom, acceptor molecule, acceptor atom, score
      P1  H  8007  8042       L1     9  0.06
      P1  H  8084  8119       L1    17  0.02
      L1  H     8    22       P1  7923  1.00
      L1  H    10    23       P1  9518  0.13

> <Gold.Goldscore.Internal.Vdw.Weighted>
-3.5960

> <Gold.Goldscore.Internal.Torsion.Weighted>
-0.3996

> <Gold.Goldscore.External.Vdw.Weighted>
27.8684

> <Gold.Goldscore.Internal.HBond.Weighted>
0.0000

> <Gold.Goldscore.External.HBond.Weighted>
2.4223

> <Gold.Goldscore.Internal.Correction.Weighted>
-0.7566

> <Gold.Rescore>
     Score     S(PLP)   S(hbond)     S(cho)   S(metal)  DE(clash)   DE(tors)     intcor
     21.06     -19.68       0.94       0.00       0.00       1.38       0.02       ----

> <Gold.PLP.Fitness>
21.0636

> <Gold.PLP.PLP>
-19.6803

> <Gold.PLP.part.hbond>
-2.0000

> <Gold.PLP.part.metal>
0.0000

> <Gold.PLP.part.buried>
-5.6597

> <Gold.PLP.part.nonpolar>
-12.7879

> <Gold.PLP.part.repulsive>
0.2564

> <Gold.PLP.ligand.clash>
1.3818

> <Gold.PLP.ligand.torsion>
0.0221

> <Gold.PLP.Chemscore.Hbond>
0.9364

> <Gold.PLP.Chemscore.CHOScore>
0.0000

> <Gold.PLP.Chemscore.Metal>
0.0000

> <Gold.Chemscore.Hbonds>
donor molecule, donor type, donor heavy atom, donor atom, acceptor molecule, acceptor atom, score
      L1  H     8    22       P1  7923  0.05
      L1  H    10    23       P1  9518  0.69
      P1  H  9518  9557       L1    11  0.14

> <Gold.PLP.Chemscore.Internal.Correction>
   9.000000E+99

#       Name:                CT1002167954
#       Creating user name   hitesit
#       Creation time:       Sun Apr 16 22:58:05 2023


#       File generated by GOLD software.
#

@<TRIPOS>MOLECULE
CT1002167954|ligand_prepared|mol2|1|dock1
    29    30     1
SMALL
NO_CHARGES


@<TRIPOS>ATOM
      1 C1         189.8601 -12.0607  49.7829 C.3            1 RES1               0.0000
      2 C2         191.2250 -12.7781  49.7484 C.ar           1 RES1               0.0000
      3 C3         189.4686 -11.8144  48.3288 C.2            1 RES1               0.0000
      4 C4         188.9103 -12.9866  50.5346 C.2            1 RES1               0.0000
      5 C5         189.8869 -10.7021  50.5212 C.3            1 RES1               0.0000
      6 C6         192.1858 -12.5204  50.7216 C.ar           1 RES1               0.0000
      7 C7         191.5362 -13.7005  48.7529 C.ar           1 RES1               0.0000
      8 N8         188.4800 -12.5912  47.8004 N.am           1 RES1               0.0000
      9 O9         190.0457 -10.9783  47.6445 O.2            1 RES1               0.0000
     10 N10        187.8624 -13.5324  49.8406 N.am           1 RES1               0.0000
     11 O11        189.0695 -13.2617  51.7175 O.2            1 RES1               0.0000
     12 C12        188.6192  -9.8817  50.3419 C.3            1 RES1               0.0000
     13 C13        193.4122 -13.1637  50.7021 C.ar           1 RES1               0.0000
     14 C14        192.7634 -14.3425  48.7352 C.ar           1 RES1               0.0000
     15 C15        187.6219 -13.4010  48.5000 C.2            1 RES1               0.0000
     16 C16        193.7017 -14.0754  49.7094 C.ar           1 RES1               0.0000
     17 O17        186.6893 -13.9672  47.9372 O.2            1 RES1               0.0000
     18 H18        190.0406 -10.8850  51.5918 H              1 RES1               0.0000
     19 H19        190.7401 -10.1179  50.1550 H              1 RES1               0.0000
     20 H20        191.9769 -11.8042  51.5093 H              1 RES1               0.0000
     21 H21        190.8138 -13.9256  47.9757 H              1 RES1               0.0000
     22 H22        188.3686 -12.5679  46.7918 H              1 RES1               0.0000
     23 H23        187.2001 -14.0880  50.3726 H              1 RES1               0.0000
     24 H24        188.6906  -8.9388  50.8800 H              1 RES1               0.0000
     25 H25        188.4488  -9.6598  49.2905 H              1 RES1               0.0000
     26 H26        187.7534 -10.4223  50.7188 H              1 RES1               0.0000
     27 H27        194.1478 -12.9488  51.4703 H              1 RES1               0.0000
     28 H28        192.9872 -15.0589  47.9517 H              1 RES1               0.0000
     29 H29        194.6624 -14.5795  49.6946 H              1 RES1               0.0000
@<TRIPOS>BOND
    1    1    2 1     
    2    1    3 1     
    3    1    4 1     
    4    1    5 1     
    5    2    6 ar    
    6    2    7 ar    
    7    3    8 1     
    8    3    9 2     
    9    4   10 1     
   10    4   11 2     
   11    5   12 1     
   12    5   18 1     
   13    5   19 1     
   14    6   13 ar    
   15    6   20 1     
   16    7   14 ar    
   17    7   21 1     
   18    8   15 1     
   19    8   22 1     
   20   10   15 1     
   21   10   23 1     
   22   12   24 1     
   23   12   25 1     
   24   12   26 1     
   25   13   16 ar    
   26   13   27 1     
   27   14   16 ar    
   28   14   28 1     
   29   15   17 2     
   30   16   29 1     
@<TRIPOS>SUBSTRUCTURE
      1 RES1           1
@<TRIPOS>SET
DONOR_HYDROGENS      STATIC     ATOMS    <user>   **** ""
2 22 23
ATOM$RED        STATIC     ATOMS    COLORGROUP SYSTEM
2 22 23
@<TRIPOS>COMMENT
> <Gold.Version>
2022.3.0

> <Gold.Id.Protein>
unknown|4v3u_clean|pdb

> <Gold.Protein.RotatedTorsions>
[ 6601 6555 6556 6557 ] final   85.76 input  119.23 | X-H torsion
[ 8042 8007 8008 8009 ] final   26.29 input   55.11 | X-H torsion
[ 8119 8084 8085 8086 ] final -159.41 input   97.66 | X-H torsion
[ 8180 8150 8151 8152 ] final  -27.22 input   74.82 | X-H torsion
[ 8260 8218 8219 8220 ] final   17.49 input   76.36 | X-H torsion
[ 9557 9518 9517 9515 ] final   44.84 input   59.97 | X-H torsion
[ 6681 6635 6636 6637 ] final  -41.29 input  125.14 | X-H torsion
[ 8323 8295 8296 8297 ] final -143.01 input   97.98 | X-H torsion
[ 10202 10167 10168 10169 ] final -179.39 input   38.66 | X-H torsion
[ 7961 7920 7921 7922 ] final  130.90 input   85.79 | X-H torsion
[ 6824 6784 6785 6786 ] final  -71.74 input  126.65 | X-H torsion
[ 7900 7873 7874 7875 ] final   91.08 input  103.19 | X-H torsion
[ 7904 7878 7877 7874 ] final  -56.53 input   60.02 | X-H torsion
[ 27201 6558 6557 6556 ] final  -45.12 input    0.00 | X-H torsion
[ 27203 7876 7875 7874 ] final  -27.14 input   -0.00 | X-H torsion
[ 27206 8010 8009 8008 ] final   71.65 input    0.00 | X-H torsion
[ 27209 8087 8086 8085 ] final  -12.93 input    0.00 | X-H torsion
[ 27212 8153 8152 8151 ] final -174.89 input   -0.00 | X-H torsion
[ 27219 10084 10083 10082 ] final   79.95 input    0.00 | X-H torsion
[ 27222 10170 10169 10168 ] final  175.68 input    0.00 | X-H torsion
[ 27225 7923 7922 7921 ] final  118.93 input   -0.00 | X-H torsion
[ 27227 6365 6364 6363 ] final  -38.23 input    0.00 | X-H torsion
[ 27230 7788 7787 7786 ] final  172.68 input    0.00 | X-H torsion
[ 27232 7715 7714 7713 ] final  175.58 input    0.00 | X-H torsion

> <Gold.Protein.ActiveResidues>
 THR404  ILE407  TYR408  ALA410  LYS411  TRP414  GLN425  TRP426  SER427  LYS428 
 LEU429  GLN430  VAL431  PHE432  ASP433  TYR453  SER462  ALA463  ILE464 

> <Gold.Protein.RotatedAtoms>
  196.4958   -9.8541   37.7197 H   0  0  0  0  0  0  0  0  0  0  0  0  # atno 6601 bound_to 6555
  197.3739   -8.6106   40.1766 H   0  0  0  0  0  0  0  0  0  0  0  0  # atno 6681 bound_to 6635
  196.3307   -4.3840   42.5365 H   0  0  0  0  0  0  0  0  0  0  0  0  # atno 6824 bound_to 6784
  197.5430   -7.1083   51.0586 H   0  0  0  0  0  0  0  0  0  0  0  0  # atno 7900 bound_to 7873
  198.5697   -8.4362   51.5919 H   0  0  0  0  0  0  0  0  0  0  0  0  # atno 7904 bound_to 7878
  195.5172   -8.5600   51.1444 H   0  0  0  0  0  0  0  0  0  0  0  0  # atno 7961 bound_to 7920
  193.2398   -9.2913   47.8809 H   0  0  0  0  0  0  0  0  0  0  0  0  # atno 8042 bound_to 8007
  190.4626   -9.0251   47.0445 H   0  0  0  0  0  0  0  0  0  0  0  0  # atno 8119 bound_to 8084
  188.9994   -9.6488   43.1627 H   0  0  0  0  0  0  0  0  0  0  0  0  # atno 8180 bound_to 8150
  188.7267   -7.5967   39.8578 H   0  0  0  0  0  0  0  0  0  0  0  0  # atno 8260 bound_to 8218
  188.3843   -8.8798   37.6498 H   0  0  0  0  0  0  0  0  0  0  0  0  # atno 8323 bound_to 8295
  186.0719  -12.3121   47.3770 H   0  0  0  0  0  0  0  0  0  0  0  0  # atno 9557 bound_to 9518
  188.3750   -4.4538   44.3626 H   0  0  0  0  0  0  0  0  0  0  0  0  # atno 10202 bound_to 10167
  195.5990   -8.3515   37.7359 LP  0  0  0  0  0  0  0  0  0  0  0  0  # atno 27200 bound_to 6555
  196.2488   -7.0937   41.1832 LP  0  0  0  0  0  0  0  0  0  0  0  0  # atno 27201 bound_to 6558
  197.4062   -7.9406   42.1544 LP  0  0  0  0  0  0  0  0  0  0  0  0  # atno 27202 bound_to 6558
  196.1597  -10.1119   47.7495 LP  0  0  0  0  0  0  0  0  0  0  0  0  # atno 27203 bound_to 7876
  195.0130  -10.7664   48.8706 LP  0  0  0  0  0  0  0  0  0  0  0  0  # atno 27204 bound_to 7876
  193.0551   -8.0472   49.0969 LP  0  0  0  0  0  0  0  0  0  0  0  0  # atno 27205 bound_to 8007
  192.5576  -10.1603   46.0865 LP  0  0  0  0  0  0  0  0  0  0  0  0  # atno 27206 bound_to 8010
  192.2277   -9.2514   44.6494 LP  0  0  0  0  0  0  0  0  0  0  0  0  # atno 27207 bound_to 8010
  190.2181   -7.5933   46.0724 LP  0  0  0  0  0  0  0  0  0  0  0  0  # atno 27208 bound_to 8084
  188.3387   -7.1288   44.5349 LP  0  0  0  0  0  0  0  0  0  0  0  0  # atno 27209 bound_to 8087
  189.0634   -6.9591   42.9710 LP  0  0  0  0  0  0  0  0  0  0  0  0  # atno 27210 bound_to 8087
  190.6977   -9.3450   43.4416 LP  0  0  0  0  0  0  0  0  0  0  0  0  # atno 27211 bound_to 8150
  188.2610  -10.7371   39.6064 LP  0  0  0  0  0  0  0  0  0  0  0  0  # atno 27212 bound_to 8153
  189.5149  -11.0445   40.7611 LP  0  0  0  0  0  0  0  0  0  0  0  0  # atno 27213 bound_to 8153
  188.0954   -8.7778   40.9787 LP  0  0  0  0  0  0  0  0  0  0  0  0  # atno 27214 bound_to 8218
  185.6459  -11.7293   48.8356 LP  0  0  0  0  0  0  0  0  0  0  0  0  # atno 27215 bound_to 9518
  186.5705  -10.8315   47.8327 LP  0  0  0  0  0  0  0  0  0  0  0  0  # atno 27216 bound_to 9518
  198.2839   -9.9193   39.4580 LP  0  0  0  0  0  0  0  0  0  0  0  0  # atno 27217 bound_to 6635
  187.0017   -9.7373   37.0011 LP  0  0  0  0  0  0  0  0  0  0  0  0  # atno 27218 bound_to 8295
  187.0957   -7.5199   48.0853 LP  0  0  0  0  0  0  0  0  0  0  0  0  # atno 27219 bound_to 10084
  188.7404   -7.3639   47.5649 LP  0  0  0  0  0  0  0  0  0  0  0  0  # atno 27220 bound_to 10084
  187.6662   -5.6519   43.3030 LP  0  0  0  0  0  0  0  0  0  0  0  0  # atno 27221 bound_to 10167
  187.5124   -6.1748   40.0682 LP  0  0  0  0  0  0  0  0  0  0  0  0  # atno 27222 bound_to 10170
  188.4745   -6.2744   41.5051 LP  0  0  0  0  0  0  0  0  0  0  0  0  # atno 27223 bound_to 10170
  195.4335   -8.4559   49.3987 LP  0  0  0  0  0  0  0  0  0  0  0  0  # atno 27224 bound_to 7920
  191.9399   -6.5652   49.8725 LP  0  0  0  0  0  0  0  0  0  0  0  0  # atno 27225 bound_to 7923
  191.1593   -7.9272   50.6044 LP  0  0  0  0  0  0  0  0  0  0  0  0  # atno 27226 bound_to 7923
  198.0592  -11.4616   38.8420 LP  0  0  0  0  0  0  0  0  0  0  0  0  # atno 27227 bound_to 6365
  199.5877  -10.8227   38.3366 LP  0  0  0  0  0  0  0  0  0  0  0  0  # atno 27228 bound_to 6365
  196.9913   -5.9700   42.2072 LP  0  0  0  0  0  0  0  0  0  0  0  0  # atno 27229 bound_to 6784
  196.2169   -7.0395   47.8864 LP  0  0  0  0  0  0  0  0  0  0  0  0  # atno 27230 bound_to 7788
  195.6753   -5.4016   48.0409 LP  0  0  0  0  0  0  0  0  0  0  0  0  # atno 27231 bound_to 7788
  195.0588   -6.2617   50.4869 LP  0  0  0  0  0  0  0  0  0  0  0  0  # atno 27232 bound_to 7715
  194.1226   -6.6614   51.8883 LP  0  0  0  0  0  0  0  0  0  0  0  0  # atno 27233 bound_to 7715
  197.0678   -6.3161   49.5809 LP  0  0  0  0  0  0  0  0  0  0  0  0  # atno 27234 bound_to 7873
  199.2055   -9.9341   51.5702 LP  0  0  0  0  0  0  0  0  0  0  0  0  # atno 27235 bound_to 7878
  197.5865   -9.7321   51.6388 LP  0  0  0  0  0  0  0  0  0  0  0  0  # atno 27236 bound_to 7878

> <Gold.Score>
     Fitness  S(hb_ext) S(vdw_ext)  S(hb_int)    S(int)      intcor
     25.52       6.05      14.67       0.00      -0.70      -0.76

> <Gold.Goldscore.Fitness>
25.5161

> <Gold.Goldscore.Internal.Vdw>
-0.9239

> <Gold.Goldscore.Internal.Torsion>
-0.5452

> <Gold.Goldscore.External.Vdw>
14.6677

> <Gold.Goldscore.Internal.HBond>
0.0000

> <Gold.Goldscore.External.HBond>
6.0522

> <Gold.Goldscore.Internal.Correction>
-0.7650

> <Gold.Goldscore.Hbonds>
donor molecule, donor type, donor heavy atom, donor atom, acceptor molecule, acceptor atom, score
      P1  H  8084  8119       L1     9  0.01
      P1  H  9518  9557       L1    17  0.01
      L1  H     8    22       P1  8092  1.00

> <Gold.Goldscore.Internal.Vdw.Weighted>
-0.9239

> <Gold.Goldscore.Internal.Torsion.Weighted>
-0.5452

> <Gold.Goldscore.External.Vdw.Weighted>
20.1681

> <Gold.Goldscore.Internal.HBond.Weighted>
0.0000

> <Gold.Goldscore.External.HBond.Weighted>
6.0522

> <Gold.Goldscore.Internal.Correction.Weighted>
-0.7650

> <Gold.Rescore>
     Score     S(PLP)   S(hbond)     S(cho)   S(metal)  DE(clash)   DE(tors)     intcor
     27.43     -21.23       2.43       0.00       0.00       0.00       0.55       ----

> <Gold.PLP.Fitness>
27.4329

> <Gold.PLP.PLP>
-21.2305

> <Gold.PLP.part.hbond>
-3.9880

> <Gold.PLP.part.metal>
0.0000

> <Gold.PLP.part.buried>
-2.6367

> <Gold.PLP.part.nonpolar>
-15.9327

> <Gold.PLP.part.repulsive>
0.3041

> <Gold.PLP.ligand.clash>
0.0000

> <Gold.PLP.ligand.torsion>
0.5511

> <Gold.PLP.Chemscore.Hbond>
2.4349

> <Gold.PLP.Chemscore.CHOScore>
0.0000

> <Gold.PLP.Chemscore.Metal>
0.0000

> <Gold.Chemscore.Hbonds>
donor molecule, donor type, donor heavy atom, donor atom, acceptor molecule, acceptor atom, score
      L1  H     8    22       P1  8092  0.73
      P1  H  8084  8119       L1     9  0.51
      P1  H  9518  9557       L1    17  0.29

> <Gold.PLP.Chemscore.Internal.Correction>
   9.000000E+99

#       Name:                CT1002167954
#       Creating user name   hitesit
#       Creation time:       Sun Apr 16 22:58:07 2023


#       File generated by GOLD software.
#

@<TRIPOS>MOLECULE
CT1002167954|ligand_prepared|mol2|1|dock4
    29    30     1
SMALL
NO_CHARGES


@<TRIPOS>ATOM
      1 C1         192.2720 -13.2115  44.9726 C.3            1 RES1               0.0000
      2 C2         192.4348 -14.7184  45.2581 C.ar           1 RES1               0.0000
      3 C3         190.7708 -12.9392  44.9514 C.2            1 RES1               0.0000
      4 C4         193.0207 -12.4834  46.0835 C.2            1 RES1               0.0000
      5 C5         192.8716 -12.7636  43.6193 C.3            1 RES1               0.0000
      6 C6         193.6009 -15.3862  44.8963 C.ar           1 RES1               0.0000
      7 C7         191.4306 -15.4522  45.8840 C.ar           1 RES1               0.0000
      8 N8         190.2327 -12.2817  46.0182 N.am           1 RES1               0.0000
      9 O9         190.0633 -13.3303  44.0311 O.2            1 RES1               0.0000
     10 N10        192.2902 -11.7231  46.9587 N.am           1 RES1               0.0000
     11 O11        194.2346 -12.5747  46.2188 O.2            1 RES1               0.0000
     12 C12        192.4203 -11.3808  43.1763 C.3            1 RES1               0.0000
     13 C13        193.7587 -16.7380  45.1534 C.ar           1 RES1               0.0000
     14 C14        191.5903 -16.8040  46.1399 C.ar           1 RES1               0.0000
     15 C15        190.9268 -11.6139  46.9950 C.2            1 RES1               0.0000
     16 C16        192.7538 -17.4476  45.7757 C.ar           1 RES1               0.0000
     17 O17        190.3390 -10.9537  47.8469 O.2            1 RES1               0.0000
     18 H18        193.9657 -12.7694  43.6986 H              1 RES1               0.0000
     19 H19        192.5874 -13.4913  42.8491 H              1 RES1               0.0000
     20 H20        194.4016 -14.8448  44.4034 H              1 RES1               0.0000
     21 H21        190.5062 -14.9669  46.1784 H              1 RES1               0.0000
     22 H22        189.2208 -12.2871  46.0971 H              1 RES1               0.0000
     23 H23        192.8111 -11.1889  47.6469 H              1 RES1               0.0000
     24 H24        192.8699 -11.1157  42.2217 H              1 RES1               0.0000
     25 H25        191.3388 -11.3459  43.0629 H              1 RES1               0.0000
     26 H26        192.7089 -10.6283  43.9074 H              1 RES1               0.0000
     27 H27        194.6757 -17.2402  44.8634 H              1 RES1               0.0000
     28 H28        190.7966 -17.3587  46.6294 H              1 RES1               0.0000
     29 H29        192.8778 -18.5065  45.9773 H              1 RES1               0.0000
@<TRIPOS>BOND
    1    1    2 1     
    2    1    3 1     
    3    1    4 1     
    4    1    5 1     
    5    2    6 ar    
    6    2    7 ar    
    7    3    8 1     
    8    3    9 2     
    9    4   10 1     
   10    4   11 2     
   11    5   12 1     
   12    5   18 1     
   13    5   19 1     
   14    6   13 ar    
   15    6   20 1     
   16    7   14 ar    
   17    7   21 1     
   18    8   15 1     
   19    8   22 1     
   20   10   15 1     
   21   10   23 1     
   22   12   24 1     
   23   12   25 1     
   24   12   26 1     
   25   13   16 ar    
   26   13   27 1     
   27   14   16 ar    
   28   14   28 1     
   29   15   17 2     
   30   16   29 1     
@<TRIPOS>SUBSTRUCTURE
      1 RES1           1
@<TRIPOS>SET
DONOR_HYDROGENS      STATIC     ATOMS    <user>   **** ""
2 22 23
ATOM$RED        STATIC     ATOMS    COLORGROUP SYSTEM
2 22 23
@<TRIPOS>COMMENT
> <Gold.Version>
2022.3.0

> <Gold.Id.Protein>
unknown|4v3u_clean|pdb

> <Gold.Protein.RotatedTorsions>
[ 6601 6555 6556 6557 ] final -135.61 input  119.23 | X-H torsion
[ 8042 8007 8008 8009 ] final -173.62 input   55.11 | X-H torsion
[ 8119 8084 8085 8086 ] final -177.07 input   97.66 | X-H torsion
[ 8180 8150 8151 8152 ] final  147.24 input   74.82 | X-H torsion
[ 8260 8218 8219 8220 ] final  -81.09 input   76.36 | X-H torsion
[ 9557 9518 9517 9515 ] final  164.16 input   59.97 | X-H torsion
[ 6681 6635 6636 6637 ] final  -94.07 input  125.14 | X-H torsion
[ 8323 8295 8296 8297 ] final  127.16 input   97.98 | X-H torsion
[ 10202 10167 10168 10169 ] final    3.59 input   38.66 | X-H torsion
[ 7961 7920 7921 7922 ] final  142.98 input   85.79 | X-H torsion
[ 6824 6784 6785 6786 ] final   77.27 input  126.65 | X-H torsion
[ 7900 7873 7874 7875 ] final  -53.85 input  103.19 | X-H torsion
[ 7904 7878 7877 7874 ] final  -20.82 input   60.02 | X-H torsion
[ 27201 6558 6557 6556 ] final   37.25 input    0.00 | X-H torsion
[ 27203 7876 7875 7874 ] final   23.05 input   -0.00 | X-H torsion
[ 27206 8010 8009 8008 ] final -102.52 input    0.00 | X-H torsion
[ 27209 8087 8086 8085 ] final  100.76 input    0.00 | X-H torsion
[ 27212 8153 8152 8151 ] final    5.32 input   -0.00 | X-H torsion
[ 27219 10084 10083 10082 ] final -144.99 input    0.00 | X-H torsion
[ 27222 10170 10169 10168 ] final  155.39 input    0.00 | X-H torsion
[ 27225 7923 7922 7921 ] final  -57.19 input   -0.00 | X-H torsion
[ 27227 6365 6364 6363 ] final   44.37 input    0.00 | X-H torsion
[ 27230 7788 7787 7786 ] final   29.76 input    0.00 | X-H torsion
[ 27232 7715 7714 7713 ] final -113.56 input    0.00 | X-H torsion

> <Gold.Protein.ActiveResidues>
 THR404  ILE407  TYR408  ALA410  LYS411  TRP414  GLN425  TRP426  SER427  LYS428 
 LEU429  GLN430  VAL431  PHE432  ASP433  TYR453  SER462  ALA463  ILE464 

> <Gold.Protein.RotatedAtoms>
  195.1972   -8.8174   37.6692 H   0  0  0  0  0  0  0  0  0  0  0  0  # atno 6601 bound_to 6555
  197.4496   -9.2637   40.6102 H   0  0  0  0  0  0  0  0  0  0  0  0  # atno 6681 bound_to 6635
  197.3540   -5.6884   42.1151 H   0  0  0  0  0  0  0  0  0  0  0  0  # atno 6824 bound_to 6784
  196.6268   -6.4273   49.8440 H   0  0  0  0  0  0  0  0  0  0  0  0  # atno 7900 bound_to 7873
  198.0061   -8.5433   51.6161 H   0  0  0  0  0  0  0  0  0  0  0  0  # atno 7904 bound_to 7878
  195.5800   -8.7334   51.1113 H   0  0  0  0  0  0  0  0  0  0  0  0  # atno 7961 bound_to 7920
  193.2974   -7.9199   48.9647 H   0  0  0  0  0  0  0  0  0  0  0  0  # atno 8042 bound_to 8007
  190.2266   -8.9426   47.1504 H   0  0  0  0  0  0  0  0  0  0  0  0  # atno 8119 bound_to 8084
  190.7335   -9.4149   43.4037 H   0  0  0  0  0  0  0  0  0  0  0  0  # atno 8180 bound_to 8150
  188.9205   -8.8751   40.1994 H   0  0  0  0  0  0  0  0  0  0  0  0  # atno 8260 bound_to 8218
  188.1541  -10.0715   37.3163 H   0  0  0  0  0  0  0  0  0  0  0  0  # atno 8323 bound_to 8295
  186.5683  -10.8402   47.8230 H   0  0  0  0  0  0  0  0  0  0  0  0  # atno 9557 bound_to 9518
  187.7000   -5.6769   43.2671 H   0  0  0  0  0  0  0  0  0  0  0  0  # atno 10202 bound_to 10167
  196.8579   -9.3566   37.7849 LP  0  0  0  0  0  0  0  0  0  0  0  0  # atno 27200 bound_to 6555
  196.1215   -7.9429   41.9340 LP  0  0  0  0  0  0  0  0  0  0  0  0  # atno 27201 bound_to 6558
  197.5335   -7.0915   41.4036 LP  0  0  0  0  0  0  0  0  0  0  0  0  # atno 27202 bound_to 6558
  196.4365  -10.5868   48.2368 LP  0  0  0  0  0  0  0  0  0  0  0  0  # atno 27203 bound_to 7876
  194.7362  -10.2914   48.3833 LP  0  0  0  0  0  0  0  0  0  0  0  0  # atno 27204 bound_to 7876
  192.9992   -9.3780   48.0451 LP  0  0  0  0  0  0  0  0  0  0  0  0  # atno 27205 bound_to 8007
  192.2993   -9.2038   44.6685 LP  0  0  0  0  0  0  0  0  0  0  0  0  # atno 27206 bound_to 8010
  192.4860  -10.2079   46.0674 LP  0  0  0  0  0  0  0  0  0  0  0  0  # atno 27207 bound_to 8010
  190.4485   -7.6738   45.9690 LP  0  0  0  0  0  0  0  0  0  0  0  0  # atno 27208 bound_to 8084
  189.4994   -6.7090   43.7739 LP  0  0  0  0  0  0  0  0  0  0  0  0  # atno 27209 bound_to 8087
  187.9027   -7.3789   43.7320 LP  0  0  0  0  0  0  0  0  0  0  0  0  # atno 27210 bound_to 8087
  189.0043   -9.5734   43.2062 LP  0  0  0  0  0  0  0  0  0  0  0  0  # atno 27211 bound_to 8150
  189.5127  -11.0449   40.7634 LP  0  0  0  0  0  0  0  0  0  0  0  0  # atno 27212 bound_to 8153
  188.2633  -10.7366   39.6041 LP  0  0  0  0  0  0  0  0  0  0  0  0  # atno 27213 bound_to 8153
  187.9056   -7.5252   40.6441 LP  0  0  0  0  0  0  0  0  0  0  0  0  # atno 27214 bound_to 8218
  186.0671  -12.3239   47.3805 LP  0  0  0  0  0  0  0  0  0  0  0  0  # atno 27215 bound_to 9518
  185.6494  -11.7190   48.8387 LP  0  0  0  0  0  0  0  0  0  0  0  0  # atno 27216 bound_to 9518
  198.2102   -9.2834   39.0359 LP  0  0  0  0  0  0  0  0  0  0  0  0  # atno 27217 bound_to 6635
  187.2238   -8.5874   37.3230 LP  0  0  0  0  0  0  0  0  0  0  0  0  # atno 27218 bound_to 8295
  188.3115   -7.3313   47.0616 LP  0  0  0  0  0  0  0  0  0  0  0  0  # atno 27219 bound_to 10084
  187.5246   -7.5525   48.5886 LP  0  0  0  0  0  0  0  0  0  0  0  0  # atno 27220 bound_to 10084
  188.3210   -4.4654   44.3657 LP  0  0  0  0  0  0  0  0  0  0  0  0  # atno 27221 bound_to 10167
  187.2960   -6.2393   40.2735 LP  0  0  0  0  0  0  0  0  0  0  0  0  # atno 27222 bound_to 10170
  188.6909   -6.2098   41.2998 LP  0  0  0  0  0  0  0  0  0  0  0  0  # atno 27223 bound_to 10170
  195.3728   -8.2883   49.4308 LP  0  0  0  0  0  0  0  0  0  0  0  0  # atno 27224 bound_to 7920
  191.1951   -7.9205   50.6504 LP  0  0  0  0  0  0  0  0  0  0  0  0  # atno 27225 bound_to 7923
  191.9040   -6.5719   49.8265 LP  0  0  0  0  0  0  0  0  0  0  0  0  # atno 27226 bound_to 7923
  199.1154  -11.8946   38.9032 LP  0  0  0  0  0  0  0  0  0  0  0  0  # atno 27227 bound_to 6365
  198.5314  -10.3897   38.2754 LP  0  0  0  0  0  0  0  0  0  0  0  0  # atno 27228 bound_to 6365
  195.9979   -4.7035   42.6163 LP  0  0  0  0  0  0  0  0  0  0  0  0  # atno 27229 bound_to 6784
  196.1606   -5.4018   47.7804 LP  0  0  0  0  0  0  0  0  0  0  0  0  # atno 27230 bound_to 7788
  195.7316   -7.0393   48.1469 LP  0  0  0  0  0  0  0  0  0  0  0  0  # atno 27231 bound_to 7788
  195.2531   -7.0155   51.1212 LP  0  0  0  0  0  0  0  0  0  0  0  0  # atno 27232 bound_to 7715
  193.9284   -5.9076   51.2540 LP  0  0  0  0  0  0  0  0  0  0  0  0  # atno 27233 bound_to 7715
  197.9782   -6.9927   50.7879 LP  0  0  0  0  0  0  0  0  0  0  0  0  # atno 27234 bound_to 7873
  199.3959   -9.3882   51.5610 LP  0  0  0  0  0  0  0  0  0  0  0  0  # atno 27235 bound_to 7878
  197.9636  -10.1701   51.6236 LP  0  0  0  0  0  0  0  0  0  0  0  0  # atno 27236 bound_to 7878

> <Gold.Score>
     Fitness  S(hb_ext) S(vdw_ext)  S(hb_int)    S(int)      intcor
     25.09       4.34      15.85       0.00      -1.05      -0.76

> <Gold.Goldscore.Fitness>
25.0896

> <Gold.Goldscore.Internal.Vdw>
-1.1260

> <Gold.Goldscore.Internal.Torsion>
-0.6923

> <Gold.Goldscore.External.Vdw>
15.8537

> <Gold.Goldscore.Internal.HBond>
0.0000

> <Gold.Goldscore.External.HBond>
4.3441

> <Gold.Goldscore.Internal.Correction>
-0.7650

> <Gold.Goldscore.Hbonds>
donor molecule, donor type, donor heavy atom, donor atom, acceptor molecule, acceptor atom, score
      P1  H  6792  6835       L1    11  0.34
      P1  H  8084  8119       L1    17  0.01
      L1  H     8    22       P1  8092  0.38

> <Gold.Goldscore.Internal.Vdw.Weighted>
-1.1260

> <Gold.Goldscore.Internal.Torsion.Weighted>
-0.6923

> <Gold.Goldscore.External.Vdw.Weighted>
21.7989

> <Gold.Goldscore.Internal.HBond.Weighted>
0.0000

> <Gold.Goldscore.External.HBond.Weighted>
4.3441

> <Gold.Goldscore.Internal.Correction.Weighted>
-0.7650

> <Gold.Rescore>
     Score     S(PLP)   S(hbond)     S(cho)   S(metal)  DE(clash)   DE(tors)     intcor
     19.56     -15.75       1.99       0.00       0.00       0.91       0.62       ----

> <Gold.PLP.Fitness>
19.5629

> <Gold.PLP.PLP>
-15.7451

> <Gold.PLP.part.hbond>
-2.2032

> <Gold.PLP.part.metal>
0.0000

> <Gold.PLP.part.buried>
-2.8964

> <Gold.PLP.part.nonpolar>
-12.0295

> <Gold.PLP.part.repulsive>
0.9360

> <Gold.PLP.ligand.clash>
0.9147

> <Gold.PLP.ligand.torsion>
0.6217

> <Gold.PLP.Chemscore.Hbond>
1.9920

> <Gold.PLP.Chemscore.CHOScore>
0.0000

> <Gold.PLP.Chemscore.Metal>
0.0000

> <Gold.Chemscore.Hbonds>
donor molecule, donor type, donor heavy atom, donor atom, acceptor molecule, acceptor atom, score
      L1  H     8    22       P1  8092  0.62
      P1  H  6792  6835       L1    11  0.15
      P1  H  8084  8119       L1    17  0.56

> <Gold.PLP.Chemscore.Internal.Correction>
   9.000000E+99

#       Name:                CT1002167954
#       Creating user name   hitesit
#       Creation time:       Sun Apr 16 22:58:09 2023


#       File generated by GOLD software.
#

@<TRIPOS>MOLECULE
CT1002167954|ligand_prepared|mol2|1|dock8
    29    30     1
SMALL
NO_CHARGES


@<TRIPOS>ATOM
      1 C1         188.9092 -11.6183  51.5708 C.3            1 RES1               0.0000
      2 C2         188.4851 -10.3428  52.3271 C.ar           1 RES1               0.0000
      3 C3         188.0142 -11.7030  50.3379 C.2            1 RES1               0.0000
      4 C4         190.3913 -11.4531  51.2534 C.2            1 RES1               0.0000
      5 C5         188.7384 -12.9176  52.3919 C.3            1 RES1               0.0000
      6 C6         188.8536  -9.0854  51.8582 C.ar           1 RES1               0.0000
      7 C7         187.7244 -10.4074  53.4915 C.ar           1 RES1               0.0000
      8 N8         188.5733 -11.4072  49.1297 N.am           1 RES1               0.0000
      9 O9         186.8261 -11.9864  50.4291 O.2            1 RES1               0.0000
     10 N10        190.7582 -11.3464  49.9374 N.am           1 RES1               0.0000
     11 O11        191.2431 -11.3977  52.1319 O.2            1 RES1               0.0000
     12 C12        189.3255 -14.1490  51.7203 C.3            1 RES1               0.0000
     13 C13        188.4729  -7.9341  52.5274 C.ar           1 RES1               0.0000
     14 C14        187.3450  -9.2548  54.1593 C.ar           1 RES1               0.0000
     15 C15        189.9133 -11.2851  48.8629 C.2            1 RES1               0.0000
     16 C16        187.7181  -8.0179  53.6780 C.ar           1 RES1               0.0000
     17 O17        190.3161 -11.1336  47.7131 O.2            1 RES1               0.0000
     18 H18        189.2205 -12.7842  53.3682 H              1 RES1               0.0000
     19 H19        187.6687 -13.0869  52.5665 H              1 RES1               0.0000
     20 H20        189.4496  -8.9998  50.9557 H              1 RES1               0.0000
     21 H21        187.4204 -11.3697  53.8891 H              1 RES1               0.0000
     22 H22        187.9362 -11.2634  48.3527 H              1 RES1               0.0000
     23 H23        191.7533 -11.3094  49.7406 H              1 RES1               0.0000
     24 H24        189.1785 -15.0324  52.3382 H              1 RES1               0.0000
     25 H25        188.8510 -14.3263  50.7573 H              1 RES1               0.0000
     26 H26        190.3937 -14.0255  51.5542 H              1 RES1               0.0000
     27 H27        188.7703  -6.9631  52.1453 H              1 RES1               0.0000
     28 H28        186.7515  -9.3255  55.0648 H              1 RES1               0.0000
     29 H29        187.4197  -7.1158  54.2019 H              1 RES1               0.0000
@<TRIPOS>BOND
    1    1    2 1     
    2    1    3 1     
    3    1    4 1     
    4    1    5 1     
    5    2    6 ar    
    6    2    7 ar    
    7    3    8 1     
    8    3    9 2     
    9    4   10 1     
   10    4   11 2     
   11    5   12 1     
   12    5   18 1     
   13    5   19 1     
   14    6   13 ar    
   15    6   20 1     
   16    7   14 ar    
   17    7   21 1     
   18    8   15 1     
   19    8   22 1     
   20   10   15 1     
   21   10   23 1     
   22   12   24 1     
   23   12   25 1     
   24   12   26 1     
   25   13   16 ar    
   26   13   27 1     
   27   14   16 ar    
   28   14   28 1     
   29   15   17 2     
   30   16   29 1     
@<TRIPOS>SUBSTRUCTURE
      1 RES1           1
@<TRIPOS>SET
DONOR_HYDROGENS      STATIC     ATOMS    <user>   **** ""
2 22 23
ATOM$RED        STATIC     ATOMS    COLORGROUP SYSTEM
2 22 23
@<TRIPOS>COMMENT
> <Gold.Version>
2022.3.0

> <Gold.Id.Protein>
unknown|4v3u_clean|pdb

> <Gold.Protein.RotatedTorsions>
[ 6601 6555 6556 6557 ] final   40.69 input  119.23 | X-H torsion
[ 8042 8007 8008 8009 ] final   75.91 input   55.11 | X-H torsion
[ 8119 8084 8085 8086 ] final -152.42 input   97.66 | X-H torsion
[ 8180 8150 8151 8152 ] final   75.57 input   74.82 | X-H torsion
[ 8260 8218 8219 8220 ] final   43.24 input   76.36 | X-H torsion
[ 9557 9518 9517 9515 ] final  -64.70 input   59.97 | X-H torsion
[ 6681 6635 6636 6637 ] final -177.06 input  125.14 | X-H torsion
[ 8323 8295 8296 8297 ] final -158.08 input   97.98 | X-H torsion
[ 10202 10167 10168 10169 ] final   46.70 input   38.66 | X-H torsion
[ 7961 7920 7921 7922 ] final -110.80 input   85.79 | X-H torsion
[ 6824 6784 6785 6786 ] final   58.60 input  126.65 | X-H torsion
[ 7900 7873 7874 7875 ] final  176.77 input  103.19 | X-H torsion
[ 7904 7878 7877 7874 ] final  146.85 input   60.02 | X-H torsion
[ 27201 6558 6557 6556 ] final   -0.61 input    0.00 | X-H torsion
[ 27203 7876 7875 7874 ] final -174.85 input   -0.00 | X-H torsion
[ 27206 8010 8009 8008 ] final  142.07 input    0.00 | X-H torsion
[ 27209 8087 8086 8085 ] final   -8.81 input    0.00 | X-H torsion
[ 27212 8153 8152 8151 ] final   -1.11 input   -0.00 | X-H torsion
[ 27219 10084 10083 10082 ] final  -92.71 input    0.00 | X-H torsion
[ 27222 10170 10169 10168 ] final   61.42 input    0.00 | X-H torsion
[ 27225 7923 7922 7921 ] final -147.37 input   -0.00 | X-H torsion
[ 27227 6365 6364 6363 ] final  -72.51 input    0.00 | X-H torsion
[ 27230 7788 7787 7786 ] final  -41.78 input    0.00 | X-H torsion
[ 27232 7715 7714 7713 ] final -177.79 input    0.00 | X-H torsion

> <Gold.Protein.ActiveResidues>
 THR404  ILE407  TYR408  ALA410  LYS411  TRP414  GLN425  TRP426  SER427  LYS428 
 LEU429  GLN430  VAL431  PHE432  ASP433  TYR453  SER462  ALA463  ILE464 

> <Gold.Protein.RotatedAtoms>
  196.8973   -9.3115   37.8100 H   0  0  0  0  0  0  0  0  0  0  0  0  # atno 6601 bound_to 6555
  198.0783  -10.0887   40.0604 H   0  0  0  0  0  0  0  0  0  0  0  0  # atno 6681 bound_to 6635
  197.4734   -5.4278   42.0889 H   0  0  0  0  0  0  0  0  0  0  0  0  # atno 6824 bound_to 6784
  198.1612   -6.6311   50.1625 H   0  0  0  0  0  0  0  0  0  0  0  0  # atno 7900 bound_to 7873
  198.7164  -10.2641   51.5895 H   0  0  0  0  0  0  0  0  0  0  0  0  # atno 7904 bound_to 7878
  195.7084   -9.2215   49.7796 H   0  0  0  0  0  0  0  0  0  0  0  0  # atno 7961 bound_to 7920
  193.7604   -8.7584   47.8646 H   0  0  0  0  0  0  0  0  0  0  0  0  # atno 8042 bound_to 8007
  190.5541   -9.0391   46.9890 H   0  0  0  0  0  0  0  0  0  0  0  0  # atno 8119 bound_to 8084
  190.2434  -10.2218   42.9788 H   0  0  0  0  0  0  0  0  0  0  0  0  # atno 8180 bound_to 8150
  188.4486   -7.3956   40.0495 H   0  0  0  0  0  0  0  0  0  0  0  0  # atno 8260 bound_to 8218
  188.4818   -9.0920   37.6399 H   0  0  0  0  0  0  0  0  0  0  0  0  # atno 8323 bound_to 8295
  185.6029  -11.8807   48.7678 H   0  0  0  0  0  0  0  0  0  0  0  0  # atno 9557 bound_to 9518
  188.3464   -5.7279   43.3396 H   0  0  0  0  0  0  0  0  0  0  0  0  # atno 10202 bound_to 10167
  195.2098   -8.8776   37.6484 LP  0  0  0  0  0  0  0  0  0  0  0  0  # atno 27200 bound_to 6555
  195.9698   -7.5560   41.5556 LP  0  0  0  0  0  0  0  0  0  0  0  0  # atno 27201 bound_to 6558
  197.6852   -7.4783   41.7819 LP  0  0  0  0  0  0  0  0  0  0  0  0  # atno 27202 bound_to 6558
  194.7657  -10.4673   48.5852 LP  0  0  0  0  0  0  0  0  0  0  0  0  # atno 27203 bound_to 7876
  196.4070  -10.4110   48.0349 LP  0  0  0  0  0  0  0  0  0  0  0  0  # atno 27204 bound_to 7876
  192.5499   -8.5643   49.1127 LP  0  0  0  0  0  0  0  0  0  0  0  0  # atno 27205 bound_to 8007
  191.7919  -10.3219   45.4660 LP  0  0  0  0  0  0  0  0  0  0  0  0  # atno 27206 bound_to 8010
  192.9934   -9.0898   45.2698 LP  0  0  0  0  0  0  0  0  0  0  0  0  # atno 27207 bound_to 8010
  190.1289   -7.5795   46.1266 LP  0  0  0  0  0  0  0  0  0  0  0  0  # atno 27208 bound_to 8084
  188.3908   -7.1050   44.5592 LP  0  0  0  0  0  0  0  0  0  0  0  0  # atno 27209 bound_to 8087
  189.0112   -6.9830   42.9467 LP  0  0  0  0  0  0  0  0  0  0  0  0  # atno 27210 bound_to 8087
  189.4828   -8.7855   43.6211 LP  0  0  0  0  0  0  0  0  0  0  0  0  # atno 27211 bound_to 8150
  189.5758  -11.0301   40.6911 LP  0  0  0  0  0  0  0  0  0  0  0  0  # atno 27212 bound_to 8153
  188.2001  -10.7515   39.6763 LP  0  0  0  0  0  0  0  0  0  0  0  0  # atno 27213 bound_to 8153
  188.3680   -8.9748   40.7909 LP  0  0  0  0  0  0  0  0  0  0  0  0  # atno 27214 bound_to 8218
  186.5178  -10.7831   47.9888 LP  0  0  0  0  0  0  0  0  0  0  0  0  # atno 27215 bound_to 9518
  186.1708  -12.2122   47.2791 LP  0  0  0  0  0  0  0  0  0  0  0  0  # atno 27216 bound_to 9518
  197.5981   -8.4802   39.5711 LP  0  0  0  0  0  0  0  0  0  0  0  0  # atno 27217 bound_to 6635
  186.9076   -9.5325   37.0108 LP  0  0  0  0  0  0  0  0  0  0  0  0  # atno 27218 bound_to 8295
  188.7677   -7.3745   47.6717 LP  0  0  0  0  0  0  0  0  0  0  0  0  # atno 27219 bound_to 10084
  187.0684   -7.5093   47.9785 LP  0  0  0  0  0  0  0  0  0  0  0  0  # atno 27220 bound_to 10084
  187.6939   -4.4160   44.2953 LP  0  0  0  0  0  0  0  0  0  0  0  0  # atno 27221 bound_to 10167
  187.5438   -6.4065   41.5041 LP  0  0  0  0  0  0  0  0  0  0  0  0  # atno 27222 bound_to 10170
  188.4431   -6.0427   40.0692 LP  0  0  0  0  0  0  0  0  0  0  0  0  # atno 27223 bound_to 10170
  195.2487   -7.8166   50.7177 LP  0  0  0  0  0  0  0  0  0  0  0  0  # atno 27224 bound_to 7920
  191.0095   -7.3659   49.5721 LP  0  0  0  0  0  0  0  0  0  0  0  0  # atno 27225 bound_to 7923
  192.0896   -7.1265   50.9048 LP  0  0  0  0  0  0  0  0  0  0  0  0  # atno 27226 bound_to 7923
  197.9702  -11.0020   38.6383 LP  0  0  0  0  0  0  0  0  0  0  0  0  # atno 27227 bound_to 6365
  199.6766  -11.2822   38.5403 LP  0  0  0  0  0  0  0  0  0  0  0  0  # atno 27228 bound_to 6365
  195.8820   -4.9565   42.6417 LP  0  0  0  0  0  0  0  0  0  0  0  0  # atno 27229 bound_to 6784
  195.3189   -5.7005   48.2572 LP  0  0  0  0  0  0  0  0  0  0  0  0  # atno 27230 bound_to 7788
  196.5733   -6.7406   47.6701 LP  0  0  0  0  0  0  0  0  0  0  0  0  # atno 27231 bound_to 7788
  195.1179   -6.3388   50.5116 LP  0  0  0  0  0  0  0  0  0  0  0  0  # atno 27232 bound_to 7715
  194.0635   -6.5843   51.8636 LP  0  0  0  0  0  0  0  0  0  0  0  0  # atno 27233 bound_to 7715
  196.4535   -6.7902   50.4714 LP  0  0  0  0  0  0  0  0  0  0  0  0  # atno 27234 bound_to 7873
  197.5391   -9.1416   51.6395 LP  0  0  0  0  0  0  0  0  0  0  0  0  # atno 27235 bound_to 7878
  199.1052   -8.6839   51.5719 LP  0  0  0  0  0  0  0  0  0  0  0  0  # atno 27236 bound_to 7878

> <Gold.Score>
     Fitness  S(hb_ext) S(vdw_ext)  S(hb_int)    S(int)      intcor
     23.74       0.14      17.18       0.00      -0.03      -0.76

> <Gold.Goldscore.Fitness>
23.7376

> <Gold.Goldscore.Internal.Vdw>
-0.3237

> <Gold.Goldscore.Internal.Torsion>
-0.4587

> <Gold.Goldscore.External.Vdw>
17.1797

> <Gold.Goldscore.Internal.HBond>
0.0000

> <Gold.Goldscore.External.HBond>
0.1412

> <Gold.Goldscore.Internal.Correction>
-0.7566

> <Gold.Goldscore.Hbonds>
donor molecule, donor type, donor heavy atom, donor atom, acceptor molecule, acceptor atom, score
      P1  H  8084  8119       L1    17  0.02
      P1  H  9518  9557       L1     9  0.03
      L1  H     8    22       P1  9518  0.01

> <Gold.Goldscore.Internal.Vdw.Weighted>
-0.3237

> <Gold.Goldscore.Internal.Torsion.Weighted>
-0.4587

> <Gold.Goldscore.External.Vdw.Weighted>
23.6221

> <Gold.Goldscore.Internal.HBond.Weighted>
0.0000

> <Gold.Goldscore.External.HBond.Weighted>
0.1412

> <Gold.Goldscore.Internal.Correction.Weighted>
-0.7566

> <Gold.Rescore>
     Score     S(PLP)   S(hbond)     S(cho)   S(metal)  DE(clash)   DE(tors)     intcor
     31.15     -28.50       0.91       0.00       0.00       0.00       0.05       ----

> <Gold.PLP.Fitness>
31.1491

> <Gold.PLP.PLP>
-28.5034

> <Gold.PLP.part.hbond>
-2.0000

> <Gold.PLP.part.metal>
0.0000

> <Gold.PLP.part.buried>
-2.3782

> <Gold.PLP.part.nonpolar>
-23.8219

> <Gold.PLP.part.repulsive>
0.1717

> <Gold.PLP.ligand.clash>
0.0000

> <Gold.PLP.ligand.torsion>
0.0464

> <Gold.PLP.Chemscore.Hbond>
0.9129

> <Gold.PLP.Chemscore.CHOScore>
0.0000

> <Gold.PLP.Chemscore.Metal>
0.0000

> <Gold.Chemscore.Hbonds>
donor molecule, donor type, donor heavy atom, donor atom, acceptor molecule, acceptor atom, score
      L1  H     8    22       P1  9518  0.44
      P1  H  8084  8119       L1    17  0.39
      P1  H  9518  9557       L1     9  0.54

> <Gold.PLP.Chemscore.Internal.Correction>
   9.000000E+99

#       Name:                CT1002167954
#       Creating user name   hitesit
#       Creation time:       Sun Apr 16 22:58:07 2023


#       File generated by GOLD software.
#

@<TRIPOS>MOLECULE
CT1002167954|ligand_prepared|mol2|1|dock5
    29    30     1
SMALL
NO_CHARGES


@<TRIPOS>ATOM
      1 C1         190.5539 -12.4517  48.4610 C.3            1 RES1               0.0000
      2 C2         190.6720 -13.2523  49.7740 C.ar           1 RES1               0.0000
      3 C3         191.7187 -11.4662  48.4539 C.2            1 RES1               0.0000
      4 C4         190.5979 -13.4752  47.3318 C.2            1 RES1               0.0000
      5 C5         189.2351 -11.6543  48.3319 C.3            1 RES1               0.0000
      6 C6         189.6330 -14.0754  50.1979 C.ar           1 RES1               0.0000
      7 C7         191.8127 -13.1803  50.5690 C.ar           1 RES1               0.0000
      8 N8         192.7605 -11.7254  47.6127 N.am           1 RES1               0.0000
      9 O9         191.7410 -10.4977  49.2034 O.2            1 RES1               0.0000
     10 N10        191.6711 -13.4459  46.4802 N.am           1 RES1               0.0000
     11 O11        189.7213 -14.3174  47.1818 O.2            1 RES1               0.0000
     12 C12        188.8061 -10.9664  49.6184 C.3            1 RES1               0.0000
     13 C13        189.7319 -14.8025  51.3726 C.ar           1 RES1               0.0000
     14 C14        191.9095 -13.9080  51.7435 C.ar           1 RES1               0.0000
     15 C15        192.7695 -12.6372  46.5879 C.2            1 RES1               0.0000
     16 C16        190.8703 -14.7197  52.1459 C.ar           1 RES1               0.0000
     17 O17        193.7203 -12.7071  45.8144 O.2            1 RES1               0.0000
     18 H18        189.3565 -10.8954  47.5492 H              1 RES1               0.0000
     19 H19        188.4384 -12.3385  48.0148 H              1 RES1               0.0000
     20 H20        188.7285 -14.1514  49.6038 H              1 RES1               0.0000
     21 H21        192.6424 -12.5474  50.2727 H              1 RES1               0.0000
     22 H22        193.6116 -11.1920  47.7593 H              1 RES1               0.0000
     23 H23        191.6489 -14.0862  45.6928 H              1 RES1               0.0000
     24 H24        187.8757 -10.4216  49.4727 H              1 RES1               0.0000
     25 H25        188.6517 -11.6944  50.4121 H              1 RES1               0.0000
     26 H26        189.5644 -10.2598  49.9493 H              1 RES1               0.0000
     27 H27        188.9107 -15.4387  51.6856 H              1 RES1               0.0000
     28 H28        192.8070 -13.8393  52.3493 H              1 RES1               0.0000
     29 H29        190.9477 -15.2896  53.0659 H              1 RES1               0.0000
@<TRIPOS>BOND
    1    1    2 1     
    2    1    3 1     
    3    1    4 1     
    4    1    5 1     
    5    2    6 ar    
    6    2    7 ar    
    7    3    8 1     
    8    3    9 2     
    9    4   10 1     
   10    4   11 2     
   11    5   12 1     
   12    5   18 1     
   13    5   19 1     
   14    6   13 ar    
   15    6   20 1     
   16    7   14 ar    
   17    7   21 1     
   18    8   15 1     
   19    8   22 1     
   20   10   15 1     
   21   10   23 1     
   22   12   24 1     
   23   12   25 1     
   24   12   26 1     
   25   13   16 ar    
   26   13   27 1     
   27   14   16 ar    
   28   14   28 1     
   29   15   17 2     
   30   16   29 1     
@<TRIPOS>SUBSTRUCTURE
      1 RES1           1
@<TRIPOS>SET
DONOR_HYDROGENS      STATIC     ATOMS    <user>   **** ""
2 22 23
ATOM$RED        STATIC     ATOMS    COLORGROUP SYSTEM
2 22 23
@<TRIPOS>COMMENT
> <Gold.Version>
2022.3.0

> <Gold.Id.Protein>
unknown|4v3u_clean|pdb

> <Gold.Protein.RotatedTorsions>
[ 6601 6555 6556 6557 ] final -110.41 input  119.23 | X-H torsion
[ 8042 8007 8008 8009 ] final  -59.73 input   55.11 | X-H torsion
[ 8119 8084 8085 8086 ] final   74.23 input   97.66 | X-H torsion
[ 8180 8150 8151 8152 ] final  170.64 input   74.82 | X-H torsion
[ 8260 8218 8219 8220 ] final   87.44 input   76.36 | X-H torsion
[ 9557 9518 9517 9515 ] final   16.22 input   59.97 | X-H torsion
[ 6681 6635 6636 6637 ] final  100.72 input  125.14 | X-H torsion
[ 8323 8295 8296 8297 ] final  128.70 input   97.98 | X-H torsion
[ 10202 10167 10168 10169 ] final  -58.15 input   38.66 | X-H torsion
[ 7961 7920 7921 7922 ] final -148.55 input   85.79 | X-H torsion
[ 6824 6784 6785 6786 ] final  140.47 input  126.65 | X-H torsion
[ 7900 7873 7874 7875 ] final  -65.33 input  103.19 | X-H torsion
[ 7904 7878 7877 7874 ] final   84.19 input   60.02 | X-H torsion
[ 27201 6558 6557 6556 ] final  149.84 input    0.00 | X-H torsion
[ 27203 7876 7875 7874 ] final  -15.53 input   -0.00 | X-H torsion
[ 27206 8010 8009 8008 ] final  -29.32 input    0.00 | X-H torsion
[ 27209 8087 8086 8085 ] final  -56.24 input    0.00 | X-H torsion
[ 27212 8153 8152 8151 ] final -146.65 input   -0.00 | X-H torsion
[ 27219 10084 10083 10082 ] final  161.30 input    0.00 | X-H torsion
[ 27222 10170 10169 10168 ] final -161.38 input    0.00 | X-H torsion
[ 27225 7923 7922 7921 ] final  -59.00 input   -0.00 | X-H torsion
[ 27227 6365 6364 6363 ] final  -79.64 input    0.00 | X-H torsion
[ 27230 7788 7787 7786 ] final  -89.20 input    0.00 | X-H torsion
[ 27232 7715 7714 7713 ] final  102.03 input    0.00 | X-H torsion

> <Gold.Protein.ActiveResidues>
 THR404  ILE407  TYR408  ALA410  LYS411  TRP414  GLN425  TRP426  SER427  LYS428 
 LEU429  GLN430  VAL431  PHE432  ASP433  TYR453  SER462  ALA463  ILE464 

> <Gold.Protein.RotatedAtoms>
  195.3906   -8.4852   37.7188 H   0  0  0  0  0  0  0  0  0  0  0  0  # atno 6601 bound_to 6555
  198.2901   -9.4899   39.0837 H   0  0  0  0  0  0  0  0  0  0  0  0  # atno 6681 bound_to 6635
  196.5439   -6.0678   42.3700 H   0  0  0  0  0  0  0  0  0  0  0  0  # atno 6824 bound_to 6784
  196.7502   -6.3698   49.7341 H   0  0  0  0  0  0  0  0  0  0  0  0  # atno 7900 bound_to 7873
  197.7769  -10.0112   51.6290 H   0  0  0  0  0  0  0  0  0  0  0  0  # atno 7904 bound_to 7878
  195.7746   -9.3413   50.3392 H   0  0  0  0  0  0  0  0  0  0  0  0  # atno 7961 bound_to 7920
  192.4214   -9.1045   48.7540 H   0  0  0  0  0  0  0  0  0  0  0  0  # atno 8042 bound_to 8007
  189.6522   -7.7453   46.6005 H   0  0  0  0  0  0  0  0  0  0  0  0  # atno 8119 bound_to 8084
  190.6157   -9.1064   43.5436 H   0  0  0  0  0  0  0  0  0  0  0  0  # atno 8180 bound_to 8150
  187.9840   -7.4260   40.5226 H   0  0  0  0  0  0  0  0  0  0  0  0  # atno 8260 bound_to 8218
  188.1727  -10.0594   37.3255 H   0  0  0  0  0  0  0  0  0  0  0  0  # atno 8323 bound_to 8295
  185.8208  -12.4748   47.7302 H   0  0  0  0  0  0  0  0  0  0  0  0  # atno 9557 bound_to 9518
  187.1435   -5.0688   43.6554 H   0  0  0  0  0  0  0  0  0  0  0  0  # atno 10202 bound_to 10167
  196.6704   -9.6786   37.7368 LP  0  0  0  0  0  0  0  0  0  0  0  0  # atno 27200 bound_to 6555
  197.5505   -7.8007   42.0520 LP  0  0  0  0  0  0  0  0  0  0  0  0  # atno 27201 bound_to 6558
  196.1045   -7.2336   41.2855 LP  0  0  0  0  0  0  0  0  0  0  0  0  # atno 27202 bound_to 6558
  196.2745  -10.2121   47.8358 LP  0  0  0  0  0  0  0  0  0  0  0  0  # atno 27203 bound_to 7876
  194.8982  -10.6661   48.7843 LP  0  0  0  0  0  0  0  0  0  0  0  0  # atno 27204 bound_to 7876
  193.8493   -8.2285   48.2496 LP  0  0  0  0  0  0  0  0  0  0  0  0  # atno 27205 bound_to 8007
  193.0448   -9.1362   45.3799 LP  0  0  0  0  0  0  0  0  0  0  0  0  # atno 27206 bound_to 8010
  191.7405  -10.2756   45.3560 LP  0  0  0  0  0  0  0  0  0  0  0  0  # atno 27207 bound_to 8010
  191.0093   -8.8426   46.5058 LP  0  0  0  0  0  0  0  0  0  0  0  0  # atno 27208 bound_to 8084
  187.9484   -7.3311   44.0709 LP  0  0  0  0  0  0  0  0  0  0  0  0  # atno 27209 bound_to 8087
  189.4537   -6.7569   43.4350 LP  0  0  0  0  0  0  0  0  0  0  0  0  # atno 27210 bound_to 8087
  189.1193   -9.8747   43.0695 LP  0  0  0  0  0  0  0  0  0  0  0  0  # atno 27211 bound_to 8150
  188.6182  -10.6964   39.3841 LP  0  0  0  0  0  0  0  0  0  0  0  0  # atno 27212 bound_to 8153
  189.1578  -11.0852   40.9834 LP  0  0  0  0  0  0  0  0  0  0  0  0  # atno 27213 bound_to 8153
  188.8232   -8.9451   40.3274 LP  0  0  0  0  0  0  0  0  0  0  0  0  # atno 27214 bound_to 8218
  185.8384  -11.3057   48.8622 LP  0  0  0  0  0  0  0  0  0  0  0  0  # atno 27215 bound_to 9518
  186.6308  -11.0913   47.4505 LP  0  0  0  0  0  0  0  0  0  0  0  0  # atno 27216 bound_to 9518
  197.3919   -9.0632   40.5220 LP  0  0  0  0  0  0  0  0  0  0  0  0  # atno 27217 bound_to 6635
  187.2059   -8.5990   37.3141 LP  0  0  0  0  0  0  0  0  0  0  0  0  # atno 27218 bound_to 8295
  187.5304   -7.3761   47.0535 LP  0  0  0  0  0  0  0  0  0  0  0  0  # atno 27219 bound_to 10084
  188.3057   -7.5077   48.5967 LP  0  0  0  0  0  0  0  0  0  0  0  0  # atno 27220 bound_to 10084
  188.8608   -5.0554   43.9890 LP  0  0  0  0  0  0  0  0  0  0  0  0  # atno 27221 bound_to 10167
  187.8272   -6.1097   39.9445 LP  0  0  0  0  0  0  0  0  0  0  0  0  # atno 27222 bound_to 10170
  188.1597   -6.3395   41.6288 LP  0  0  0  0  0  0  0  0  0  0  0  0  # atno 27223 bound_to 10170
  195.1848   -7.7008   50.1769 LP  0  0  0  0  0  0  0  0  0  0  0  0  # atno 27224 bound_to 7920
  191.1782   -7.9240   50.6292 LP  0  0  0  0  0  0  0  0  0  0  0  0  # atno 27225 bound_to 7923
  191.9209   -6.5684   49.8477 LP  0  0  0  0  0  0  0  0  0  0  0  0  # atno 27226 bound_to 7923
  197.9899  -10.9072   38.5911 LP  0  0  0  0  0  0  0  0  0  0  0  0  # atno 27227 bound_to 6365
  199.6570  -11.3771   38.5875 LP  0  0  0  0  0  0  0  0  0  0  0  0  # atno 27228 bound_to 6365
  196.7844   -4.3351   42.3688 LP  0  0  0  0  0  0  0  0  0  0  0  0  # atno 27229 bound_to 6784
  195.2010   -6.3764   48.3767 LP  0  0  0  0  0  0  0  0  0  0  0  0  # atno 27230 bound_to 7788
  196.6911   -6.0646   47.5506 LP  0  0  0  0  0  0  0  0  0  0  0  0  # atno 27231 bound_to 7788
  194.2067   -5.7761   50.8234 LP  0  0  0  0  0  0  0  0  0  0  0  0  # atno 27232 bound_to 7715
  194.9748   -7.1470   51.5518 LP  0  0  0  0  0  0  0  0  0  0  0  0  # atno 27233 bound_to 7715
  197.8556   -7.0499   50.8971 LP  0  0  0  0  0  0  0  0  0  0  0  0  # atno 27234 bound_to 7873
  198.2323   -8.4490   51.6085 LP  0  0  0  0  0  0  0  0  0  0  0  0  # atno 27235 bound_to 7878
  199.3579   -9.6312   51.5631 LP  0  0  0  0  0  0  0  0  0  0  0  0  # atno 27236 bound_to 7878

> <Gold.Score>
     Fitness  S(hb_ext) S(vdw_ext)  S(hb_int)    S(int)      intcor
     23.50       8.21      13.40       0.00      -3.13      -0.76

> <Gold.Goldscore.Fitness>
23.5027

> <Gold.Goldscore.Internal.Vdw>
-3.0075

> <Gold.Goldscore.Internal.Torsion>
-0.8842

> <Gold.Goldscore.External.Vdw>
13.3993

> <Gold.Goldscore.Internal.HBond>
0.0000

> <Gold.Goldscore.External.HBond>
8.2053

> <Gold.Goldscore.Internal.Correction>
-0.7650

> <Gold.Goldscore.Hbonds>
donor molecule, donor type, donor heavy atom, donor atom, acceptor molecule, acceptor atom, score
      P1  H  6792  6835       L1    17  0.97
      P1  H  8007  8042       L1     9  0.52
      L1  H     8    22       P1  7876  0.66

> <Gold.Goldscore.Internal.Vdw.Weighted>
-3.0075

> <Gold.Goldscore.Internal.Torsion.Weighted>
-0.8842

> <Gold.Goldscore.External.Vdw.Weighted>
18.4241

> <Gold.Goldscore.Internal.HBond.Weighted>
0.0000

> <Gold.Goldscore.External.HBond.Weighted>
8.2053

> <Gold.Goldscore.Internal.Correction.Weighted>
-0.7650

> <Gold.Rescore>
     Score     S(PLP)   S(hbond)     S(cho)   S(metal)  DE(clash)   DE(tors)     intcor
     20.47     -16.56       1.83       0.00       0.00       1.06       0.26       ----

> <Gold.PLP.Fitness>
20.4739

> <Gold.PLP.PLP>
-16.5629

> <Gold.PLP.part.hbond>
-2.3790

> <Gold.PLP.part.metal>
0.0000

> <Gold.PLP.part.buried>
0.8827

> <Gold.PLP.part.nonpolar>
-15.9872

> <Gold.PLP.part.repulsive>
0.3690

> <Gold.PLP.ligand.clash>
1.0622

> <Gold.PLP.ligand.torsion>
0.2614

> <Gold.PLP.Chemscore.Hbond>
1.8320

> <Gold.PLP.Chemscore.CHOScore>
0.0000

> <Gold.PLP.Chemscore.Metal>
0.0000

> <Gold.Chemscore.Hbonds>
donor molecule, donor type, donor heavy atom, donor atom, acceptor molecule, acceptor atom, score
      P1  H  6792  6835       L1    17  1.00
      P1  H  8007  8042       L1     9  1.00

> <Gold.PLP.Chemscore.Internal.Correction>
   9.000000E+99

