#       Name:                CT1002167954
#       Creating user name   hitesit
#       Creation time:       Sun Apr 16 22:58:07 2023


#       File generated by GOLD software.
#

@<TRIPOS>MOLECULE
CT1002167954|ligand_prepared|mol2|1|dock5
    29    30     1
SMALL
NO_CHARGES


@<TRIPOS>ATOM
      1 C1         190.5539 -12.4517  48.4610 C.3            1 RES1               0.0000
      2 C2         190.6720 -13.2523  49.7740 C.ar           1 RES1               0.0000
      3 C3         191.7187 -11.4662  48.4539 C.2            1 RES1               0.0000
      4 C4         190.5979 -13.4752  47.3318 C.2            1 RES1               0.0000
      5 C5         189.2351 -11.6543  48.3319 C.3            1 RES1               0.0000
      6 C6         189.6330 -14.0754  50.1979 C.ar           1 RES1               0.0000
      7 C7         191.8127 -13.1803  50.5690 C.ar           1 RES1               0.0000
      8 N8         192.7605 -11.7254  47.6127 N.am           1 RES1               0.0000
      9 O9         191.7410 -10.4977  49.2034 O.2            1 RES1               0.0000
     10 N10        191.6711 -13.4459  46.4802 N.am           1 RES1               0.0000
     11 O11        189.7213 -14.3174  47.1818 O.2            1 RES1               0.0000
     12 C12        188.8061 -10.9664  49.6184 C.3            1 RES1               0.0000
     13 C13        189.7319 -14.8025  51.3726 C.ar           1 RES1               0.0000
     14 C14        191.9095 -13.9080  51.7435 C.ar           1 RES1               0.0000
     15 C15        192.7695 -12.6372  46.5879 C.2            1 RES1               0.0000
     16 C16        190.8703 -14.7197  52.1459 C.ar           1 RES1               0.0000
     17 O17        193.7203 -12.7071  45.8144 O.2            1 RES1               0.0000
     18 H18        189.3565 -10.8954  47.5492 H              1 RES1               0.0000
     19 H19        188.4384 -12.3385  48.0148 H              1 RES1               0.0000
     20 H20        188.7285 -14.1514  49.6038 H              1 RES1               0.0000
     21 H21        192.6424 -12.5474  50.2727 H              1 RES1               0.0000
     22 H22        193.6116 -11.1920  47.7593 H              1 RES1               0.0000
     23 H23        191.6489 -14.0862  45.6928 H              1 RES1               0.0000
     24 H24        187.8757 -10.4216  49.4727 H              1 RES1               0.0000
     25 H25        188.6517 -11.6944  50.4121 H              1 RES1               0.0000
     26 H26        189.5644 -10.2598  49.9493 H              1 RES1               0.0000
     27 H27        188.9107 -15.4387  51.6856 H              1 RES1               0.0000
     28 H28        192.8070 -13.8393  52.3493 H              1 RES1               0.0000
     29 H29        190.9477 -15.2896  53.0659 H              1 RES1               0.0000
@<TRIPOS>BOND
    1    1    2 1     
    2    1    3 1     
    3    1    4 1     
    4    1    5 1     
    5    2    6 ar    
    6    2    7 ar    
    7    3    8 1     
    8    3    9 2     
    9    4   10 1     
   10    4   11 2     
   11    5   12 1     
   12    5   18 1     
   13    5   19 1     
   14    6   13 ar    
   15    6   20 1     
   16    7   14 ar    
   17    7   21 1     
   18    8   15 1     
   19    8   22 1     
   20   10   15 1     
   21   10   23 1     
   22   12   24 1     
   23   12   25 1     
   24   12   26 1     
   25   13   16 ar    
   26   13   27 1     
   27   14   16 ar    
   28   14   28 1     
   29   15   17 2     
   30   16   29 1     
@<TRIPOS>SUBSTRUCTURE
      1 RES1           1
@<TRIPOS>SET
DONOR_HYDROGENS      STATIC     ATOMS    <user>   **** ""
2 22 23
ATOM$RED        STATIC     ATOMS    COLORGROUP SYSTEM
2 22 23
@<TRIPOS>COMMENT
> <Gold.Version>
2022.3.0

> <Gold.Id.Protein>
unknown|4v3u_clean|pdb

> <Gold.Protein.RotatedTorsions>
[ 6601 6555 6556 6557 ] final -110.41 input  119.23 | X-H torsion
[ 8042 8007 8008 8009 ] final  -59.73 input   55.11 | X-H torsion
[ 8119 8084 8085 8086 ] final   74.23 input   97.66 | X-H torsion
[ 8180 8150 8151 8152 ] final  170.64 input   74.82 | X-H torsion
[ 8260 8218 8219 8220 ] final   87.44 input   76.36 | X-H torsion
[ 9557 9518 9517 9515 ] final   16.22 input   59.97 | X-H torsion
[ 6681 6635 6636 6637 ] final  100.72 input  125.14 | X-H torsion
[ 8323 8295 8296 8297 ] final  128.70 input   97.98 | X-H torsion
[ 10202 10167 10168 10169 ] final  -58.15 input   38.66 | X-H torsion
[ 7961 7920 7921 7922 ] final -148.55 input   85.79 | X-H torsion
[ 6824 6784 6785 6786 ] final  140.47 input  126.65 | X-H torsion
[ 7900 7873 7874 7875 ] final  -65.33 input  103.19 | X-H torsion
[ 7904 7878 7877 7874 ] final   84.19 input   60.02 | X-H torsion
[ 27201 6558 6557 6556 ] final  149.84 input    0.00 | X-H torsion
[ 27203 7876 7875 7874 ] final  -15.53 input   -0.00 | X-H torsion
[ 27206 8010 8009 8008 ] final  -29.32 input    0.00 | X-H torsion
[ 27209 8087 8086 8085 ] final  -56.24 input    0.00 | X-H torsion
[ 27212 8153 8152 8151 ] final -146.65 input   -0.00 | X-H torsion
[ 27219 10084 10083 10082 ] final  161.30 input    0.00 | X-H torsion
[ 27222 10170 10169 10168 ] final -161.38 input    0.00 | X-H torsion
[ 27225 7923 7922 7921 ] final  -59.00 input   -0.00 | X-H torsion
[ 27227 6365 6364 6363 ] final  -79.64 input    0.00 | X-H torsion
[ 27230 7788 7787 7786 ] final  -89.20 input    0.00 | X-H torsion
[ 27232 7715 7714 7713 ] final  102.03 input    0.00 | X-H torsion

> <Gold.Protein.ActiveResidues>
 THR404  ILE407  TYR408  ALA410  LYS411  TRP414  GLN425  TRP426  SER427  LYS428 
 LEU429  GLN430  VAL431  PHE432  ASP433  TYR453  SER462  ALA463  ILE464 

> <Gold.Protein.RotatedAtoms>
  195.3906   -8.4852   37.7188 H   0  0  0  0  0  0  0  0  0  0  0  0  # atno 6601 bound_to 6555
  198.2901   -9.4899   39.0837 H   0  0  0  0  0  0  0  0  0  0  0  0  # atno 6681 bound_to 6635
  196.5439   -6.0678   42.3700 H   0  0  0  0  0  0  0  0  0  0  0  0  # atno 6824 bound_to 6784
  196.7502   -6.3698   49.7341 H   0  0  0  0  0  0  0  0  0  0  0  0  # atno 7900 bound_to 7873
  197.7769  -10.0112   51.6290 H   0  0  0  0  0  0  0  0  0  0  0  0  # atno 7904 bound_to 7878
  195.7746   -9.3413   50.3392 H   0  0  0  0  0  0  0  0  0  0  0  0  # atno 7961 bound_to 7920
  192.4214   -9.1045   48.7540 H   0  0  0  0  0  0  0  0  0  0  0  0  # atno 8042 bound_to 8007
  189.6522   -7.7453   46.6005 H   0  0  0  0  0  0  0  0  0  0  0  0  # atno 8119 bound_to 8084
  190.6157   -9.1064   43.5436 H   0  0  0  0  0  0  0  0  0  0  0  0  # atno 8180 bound_to 8150
  187.9840   -7.4260   40.5226 H   0  0  0  0  0  0  0  0  0  0  0  0  # atno 8260 bound_to 8218
  188.1727  -10.0594   37.3255 H   0  0  0  0  0  0  0  0  0  0  0  0  # atno 8323 bound_to 8295
  185.8208  -12.4748   47.7302 H   0  0  0  0  0  0  0  0  0  0  0  0  # atno 9557 bound_to 9518
  187.1435   -5.0688   43.6554 H   0  0  0  0  0  0  0  0  0  0  0  0  # atno 10202 bound_to 10167
  196.6704   -9.6786   37.7368 LP  0  0  0  0  0  0  0  0  0  0  0  0  # atno 27200 bound_to 6555
  197.5505   -7.8007   42.0520 LP  0  0  0  0  0  0  0  0  0  0  0  0  # atno 27201 bound_to 6558
  196.1045   -7.2336   41.2855 LP  0  0  0  0  0  0  0  0  0  0  0  0  # atno 27202 bound_to 6558
  196.2745  -10.2121   47.8358 LP  0  0  0  0  0  0  0  0  0  0  0  0  # atno 27203 bound_to 7876
  194.8982  -10.6661   48.7843 LP  0  0  0  0  0  0  0  0  0  0  0  0  # atno 27204 bound_to 7876
  193.8493   -8.2285   48.2496 LP  0  0  0  0  0  0  0  0  0  0  0  0  # atno 27205 bound_to 8007
  193.0448   -9.1362   45.3799 LP  0  0  0  0  0  0  0  0  0  0  0  0  # atno 27206 bound_to 8010
  191.7405  -10.2756   45.3560 LP  0  0  0  0  0  0  0  0  0  0  0  0  # atno 27207 bound_to 8010
  191.0093   -8.8426   46.5058 LP  0  0  0  0  0  0  0  0  0  0  0  0  # atno 27208 bound_to 8084
  187.9484   -7.3311   44.0709 LP  0  0  0  0  0  0  0  0  0  0  0  0  # atno 27209 bound_to 8087
  189.4537   -6.7569   43.4350 LP  0  0  0  0  0  0  0  0  0  0  0  0  # atno 27210 bound_to 8087
  189.1193   -9.8747   43.0695 LP  0  0  0  0  0  0  0  0  0  0  0  0  # atno 27211 bound_to 8150
  188.6182  -10.6964   39.3841 LP  0  0  0  0  0  0  0  0  0  0  0  0  # atno 27212 bound_to 8153
  189.1578  -11.0852   40.9834 LP  0  0  0  0  0  0  0  0  0  0  0  0  # atno 27213 bound_to 8153
  188.8232   -8.9451   40.3274 LP  0  0  0  0  0  0  0  0  0  0  0  0  # atno 27214 bound_to 8218
  185.8384  -11.3057   48.8622 LP  0  0  0  0  0  0  0  0  0  0  0  0  # atno 27215 bound_to 9518
  186.6308  -11.0913   47.4505 LP  0  0  0  0  0  0  0  0  0  0  0  0  # atno 27216 bound_to 9518
  197.3919   -9.0632   40.5220 LP  0  0  0  0  0  0  0  0  0  0  0  0  # atno 27217 bound_to 6635
  187.2059   -8.5990   37.3141 LP  0  0  0  0  0  0  0  0  0  0  0  0  # atno 27218 bound_to 8295
  187.5304   -7.3761   47.0535 LP  0  0  0  0  0  0  0  0  0  0  0  0  # atno 27219 bound_to 10084
  188.3057   -7.5077   48.5967 LP  0  0  0  0  0  0  0  0  0  0  0  0  # atno 27220 bound_to 10084
  188.8608   -5.0554   43.9890 LP  0  0  0  0  0  0  0  0  0  0  0  0  # atno 27221 bound_to 10167
  187.8272   -6.1097   39.9445 LP  0  0  0  0  0  0  0  0  0  0  0  0  # atno 27222 bound_to 10170
  188.1597   -6.3395   41.6288 LP  0  0  0  0  0  0  0  0  0  0  0  0  # atno 27223 bound_to 10170
  195.1848   -7.7008   50.1769 LP  0  0  0  0  0  0  0  0  0  0  0  0  # atno 27224 bound_to 7920
  191.1782   -7.9240   50.6292 LP  0  0  0  0  0  0  0  0  0  0  0  0  # atno 27225 bound_to 7923
  191.9209   -6.5684   49.8477 LP  0  0  0  0  0  0  0  0  0  0  0  0  # atno 27226 bound_to 7923
  197.9899  -10.9072   38.5911 LP  0  0  0  0  0  0  0  0  0  0  0  0  # atno 27227 bound_to 6365
  199.6570  -11.3771   38.5875 LP  0  0  0  0  0  0  0  0  0  0  0  0  # atno 27228 bound_to 6365
  196.7844   -4.3351   42.3688 LP  0  0  0  0  0  0  0  0  0  0  0  0  # atno 27229 bound_to 6784
  195.2010   -6.3764   48.3767 LP  0  0  0  0  0  0  0  0  0  0  0  0  # atno 27230 bound_to 7788
  196.6911   -6.0646   47.5506 LP  0  0  0  0  0  0  0  0  0  0  0  0  # atno 27231 bound_to 7788
  194.2067   -5.7761   50.8234 LP  0  0  0  0  0  0  0  0  0  0  0  0  # atno 27232 bound_to 7715
  194.9748   -7.1470   51.5518 LP  0  0  0  0  0  0  0  0  0  0  0  0  # atno 27233 bound_to 7715
  197.8556   -7.0499   50.8971 LP  0  0  0  0  0  0  0  0  0  0  0  0  # atno 27234 bound_to 7873
  198.2323   -8.4490   51.6085 LP  0  0  0  0  0  0  0  0  0  0  0  0  # atno 27235 bound_to 7878
  199.3579   -9.6312   51.5631 LP  0  0  0  0  0  0  0  0  0  0  0  0  # atno 27236 bound_to 7878

> <Gold.Score>
     Fitness  S(hb_ext) S(vdw_ext)  S(hb_int)    S(int)      intcor
     23.50       8.21      13.40       0.00      -3.13      -0.76

> <Gold.Goldscore.Fitness>
23.5027

> <Gold.Goldscore.Internal.Vdw>
-3.0075

> <Gold.Goldscore.Internal.Torsion>
-0.8842

> <Gold.Goldscore.External.Vdw>
13.3993

> <Gold.Goldscore.Internal.HBond>
0.0000

> <Gold.Goldscore.External.HBond>
8.2053

> <Gold.Goldscore.Internal.Correction>
-0.7650

> <Gold.Goldscore.Hbonds>
donor molecule, donor type, donor heavy atom, donor atom, acceptor molecule, acceptor atom, score
      P1  H  6792  6835       L1    17  0.97
      P1  H  8007  8042       L1     9  0.52
      L1  H     8    22       P1  7876  0.66

> <Gold.Goldscore.Internal.Vdw.Weighted>
-3.0075

> <Gold.Goldscore.Internal.Torsion.Weighted>
-0.8842

> <Gold.Goldscore.External.Vdw.Weighted>
18.4241

> <Gold.Goldscore.Internal.HBond.Weighted>
0.0000

> <Gold.Goldscore.External.HBond.Weighted>
8.2053

> <Gold.Goldscore.Internal.Correction.Weighted>
-0.7650

> <Gold.Rescore>
     Score     S(PLP)   S(hbond)     S(cho)   S(metal)  DE(clash)   DE(tors)     intcor
     20.47     -16.56       1.83       0.00       0.00       1.06       0.26       ----

> <Gold.PLP.Fitness>
20.4739

> <Gold.PLP.PLP>
-16.5629

> <Gold.PLP.part.hbond>
-2.3790

> <Gold.PLP.part.metal>
0.0000

> <Gold.PLP.part.buried>
0.8827

> <Gold.PLP.part.nonpolar>
-15.9872

> <Gold.PLP.part.repulsive>
0.3690

> <Gold.PLP.ligand.clash>
1.0622

> <Gold.PLP.ligand.torsion>
0.2614

> <Gold.PLP.Chemscore.Hbond>
1.8320

> <Gold.PLP.Chemscore.CHOScore>
0.0000

> <Gold.PLP.Chemscore.Metal>
0.0000

> <Gold.Chemscore.Hbonds>
donor molecule, donor type, donor heavy atom, donor atom, acceptor molecule, acceptor atom, score
      P1  H  6792  6835       L1    17  1.00
      P1  H  8007  8042       L1     9  1.00

> <Gold.PLP.Chemscore.Internal.Correction>
   9.000000E+99

