#       Name:                CT1002167954
#       Creating user name   hitesit
#       Creation time:       Sun Apr 16 22:58:08 2023


#       File generated by GOLD software.
#

@<TRIPOS>MOLECULE
CT1002167954|ligand_prepared|mol2|1|dock6
    29    30     1
SMALL
NO_CHARGES


@<TRIPOS>ATOM
      1 C1         192.5339 -13.4976  45.0285 C.3            1 RES1               0.0000
      2 C2         192.2673 -12.8594  46.4071 C.ar           1 RES1               0.0000
      3 C3         191.2309 -14.1720  44.6095 C.2            1 RES1               0.0000
      4 C4         192.9699 -12.3616  44.1097 C.2            1 RES1               0.0000
      5 C5         193.6564 -14.5613  45.0389 C.3            1 RES1               0.0000
      6 C6         191.0733 -12.1907  46.6594 C.ar           1 RES1               0.0000
      7 C7         193.2032 -12.9333  47.4353 C.ar           1 RES1               0.0000
      8 N8         190.4963 -13.5731  43.6289 N.am           1 RES1               0.0000
      9 O9         190.8343 -15.1926  45.1585 O.2            1 RES1               0.0000
     10 N10        192.1499 -12.0321  43.0624 N.am           1 RES1               0.0000
     11 O11        194.0081 -11.7380  44.2929 O.2            1 RES1               0.0000
     12 C12        193.8178 -15.2952  43.7170 C.3            1 RES1               0.0000
     13 C13        190.8225 -11.6191  47.8958 C.ar           1 RES1               0.0000
     14 C14        192.9505 -12.3608  48.6710 C.ar           1 RES1               0.0000
     15 C15        190.9180 -12.5659  42.7985 C.2            1 RES1               0.0000
     16 C16        191.7605 -11.7041  48.9025 C.ar           1 RES1               0.0000
     17 O17        190.2153 -12.1792  41.8691 O.2            1 RES1               0.0000
     18 H18        194.6053 -14.0708  45.2887 H              1 RES1               0.0000
     19 H19        193.4406 -15.2946  45.8258 H              1 RES1               0.0000
     20 H20        190.3242 -12.1114  45.8786 H              1 RES1               0.0000
     21 H21        194.1467 -13.4441  47.2756 H              1 RES1               0.0000
     22 H22        189.5454 -13.9046  43.5013 H              1 RES1               0.0000
     23 H23        192.4893 -11.3232  42.4201 H              1 RES1               0.0000
     24 H24        194.6181 -16.0297  43.7788 H              1 RES1               0.0000
     25 H25        192.9003 -15.8154  43.4500 H              1 RES1               0.0000
     26 H26        194.0580 -14.5989  42.9161 H              1 RES1               0.0000
     27 H27        189.8850 -11.1022  48.0725 H              1 RES1               0.0000
     28 H28        193.6919 -12.4296  49.4602 H              1 RES1               0.0000
     29 H29        191.5637 -11.2566  49.8711 H              1 RES1               0.0000
@<TRIPOS>BOND
    1    1    2 1     
    2    1    3 1     
    3    1    4 1     
    4    1    5 1     
    5    2    6 ar    
    6    2    7 ar    
    7    3    8 1     
    8    3    9 2     
    9    4   10 1     
   10    4   11 2     
   11    5   12 1     
   12    5   18 1     
   13    5   19 1     
   14    6   13 ar    
   15    6   20 1     
   16    7   14 ar    
   17    7   21 1     
   18    8   15 1     
   19    8   22 1     
   20   10   15 1     
   21   10   23 1     
   22   12   24 1     
   23   12   25 1     
   24   12   26 1     
   25   13   16 ar    
   26   13   27 1     
   27   14   16 ar    
   28   14   28 1     
   29   15   17 2     
   30   16   29 1     
@<TRIPOS>SUBSTRUCTURE
      1 RES1           1
@<TRIPOS>SET
DONOR_HYDROGENS      STATIC     ATOMS    <user>   **** ""
2 22 23
ATOM$RED        STATIC     ATOMS    COLORGROUP SYSTEM
2 22 23
@<TRIPOS>COMMENT
> <Gold.Version>
2022.3.0

> <Gold.Id.Protein>
unknown|4v3u_clean|pdb

> <Gold.Protein.RotatedTorsions>
[ 6601 6555 6556 6557 ] final  -47.39 input  119.23 | X-H torsion
[ 8042 8007 8008 8009 ] final -135.51 input   55.11 | X-H torsion
[ 8119 8084 8085 8086 ] final    4.40 input   97.66 | X-H torsion
[ 8180 8150 8151 8152 ] final   44.14 input   74.82 | X-H torsion
[ 8260 8218 8219 8220 ] final  127.33 input   76.36 | X-H torsion
[ 9557 9518 9517 9515 ] final  127.29 input   59.97 | X-H torsion
[ 6681 6635 6636 6637 ] final -108.50 input  125.14 | X-H torsion
[ 8323 8295 8296 8297 ] final  124.35 input   97.98 | X-H torsion
[ 10202 10167 10168 10169 ] final  104.05 input   38.66 | X-H torsion
[ 7961 7920 7921 7922 ] final   12.18 input   85.79 | X-H torsion
[ 6824 6784 6785 6786 ] final -149.43 input  126.65 | X-H torsion
[ 7900 7873 7874 7875 ] final  109.43 input  103.19 | X-H torsion
[ 7904 7878 7877 7874 ] final -140.69 input   60.02 | X-H torsion
[ 27201 6558 6557 6556 ] final  -98.05 input    0.00 | X-H torsion
[ 27203 7876 7875 7874 ] final  176.66 input   -0.00 | X-H torsion
[ 27206 8010 8009 8008 ] final    6.40 input    0.00 | X-H torsion
[ 27209 8087 8086 8085 ] final  157.20 input    0.00 | X-H torsion
[ 27212 8153 8152 8151 ] final   43.70 input   -0.00 | X-H torsion
[ 27219 10084 10083 10082 ] final   83.62 input    0.00 | X-H torsion
[ 27222 10170 10169 10168 ] final  -26.09 input    0.00 | X-H torsion
[ 27225 7923 7922 7921 ] final  -85.10 input   -0.00 | X-H torsion
[ 27227 6365 6364 6363 ] final  124.96 input    0.00 | X-H torsion
[ 27230 7788 7787 7786 ] final   67.64 input    0.00 | X-H torsion
[ 27232 7715 7714 7713 ] final  -84.32 input    0.00 | X-H torsion

> <Gold.Protein.ActiveResidues>
 THR404  ILE407  TYR408  ALA410  LYS411  TRP414  GLN425  TRP426  SER427  LYS428 
 LEU429  GLN430  VAL431  PHE432  ASP433  TYR453  SER462  ALA463  ILE464 

> <Gold.Protein.RotatedAtoms>
  196.2794   -8.2422   37.8358 H   0  0  0  0  0  0  0  0  0  0  0  0  # atno 6601 bound_to 6555
  197.5338   -9.4693   40.6224 H   0  0  0  0  0  0  0  0  0  0  0  0  # atno 6681 bound_to 6635
  195.8446   -5.3795   42.6467 H   0  0  0  0  0  0  0  0  0  0  0  0  # atno 6824 bound_to 6784
  197.7956   -7.0557   50.9532 H   0  0  0  0  0  0  0  0  0  0  0  0  # atno 7900 bound_to 7873
  199.3893   -9.3859   51.5590 H   0  0  0  0  0  0  0  0  0  0  0  0  # atno 7904 bound_to 7878
  195.1707   -7.7562   49.8872 H   0  0  0  0  0  0  0  0  0  0  0  0  # atno 7961 bound_to 7920
  192.8206   -8.1786   49.1694 H   0  0  0  0  0  0  0  0  0  0  0  0  # atno 8042 bound_to 8007
  190.4284   -7.6527   45.9571 H   0  0  0  0  0  0  0  0  0  0  0  0  # atno 8119 bound_to 8084
  189.7730  -10.2841   42.9140 H   0  0  0  0  0  0  0  0  0  0  0  0  # atno 8180 bound_to 8150
  187.7654   -7.8324   40.9088 H   0  0  0  0  0  0  0  0  0  0  0  0  # atno 8260 bound_to 8218
  188.1193  -10.0919   37.2996 H   0  0  0  0  0  0  0  0  0  0  0  0  # atno 8323 bound_to 8295
  186.6173  -11.2053   47.3593 H   0  0  0  0  0  0  0  0  0  0  0  0  # atno 9557 bound_to 9518
  188.8811   -5.2585   43.8084 H   0  0  0  0  0  0  0  0  0  0  0  0  # atno 10202 bound_to 10167
  195.8088   -9.9142   37.6234 LP  0  0  0  0  0  0  0  0  0  0  0  0  # atno 27200 bound_to 6555
  196.9851   -6.8740   41.1107 LP  0  0  0  0  0  0  0  0  0  0  0  0  # atno 27201 bound_to 6558
  196.6698   -8.1604   42.2269 LP  0  0  0  0  0  0  0  0  0  0  0  0  # atno 27202 bound_to 6558
  194.8080  -10.5509   48.6729 LP  0  0  0  0  0  0  0  0  0  0  0  0  # atno 27203 bound_to 7876
  196.3647  -10.3274   47.9472 LP  0  0  0  0  0  0  0  0  0  0  0  0  # atno 27204 bound_to 7876
  193.4619   -9.1270   47.8465 LP  0  0  0  0  0  0  0  0  0  0  0  0  # atno 27205 bound_to 8007
  193.0940   -9.4491   45.8063 LP  0  0  0  0  0  0  0  0  0  0  0  0  # atno 27206 bound_to 8010
  191.6913   -9.9626   44.9296 LP  0  0  0  0  0  0  0  0  0  0  0  0  # atno 27207 bound_to 8010
  190.2515   -8.9329   47.1339 LP  0  0  0  0  0  0  0  0  0  0  0  0  # atno 27208 bound_to 8084
  189.1802   -6.9041   43.0452 LP  0  0  0  0  0  0  0  0  0  0  0  0  # atno 27209 bound_to 8087
  188.2219   -7.1839   44.4607 LP  0  0  0  0  0  0  0  0  0  0  0  0  # atno 27210 bound_to 8087
  189.9422   -8.7247   43.6844 LP  0  0  0  0  0  0  0  0  0  0  0  0  # atno 27211 bound_to 8150
  189.0057  -11.0887   41.0186 LP  0  0  0  0  0  0  0  0  0  0  0  0  # atno 27212 bound_to 8153
  188.7703  -10.6929   39.3489 LP  0  0  0  0  0  0  0  0  0  0  0  0  # atno 27213 bound_to 8153
  189.0374   -8.5469   39.9489 LP  0  0  0  0  0  0  0  0  0  0  0  0  # atno 27214 bound_to 8218
  185.7529  -12.4904   47.8592 LP  0  0  0  0  0  0  0  0  0  0  0  0  # atno 27215 bound_to 9518
  185.9142  -11.1849   48.8269 LP  0  0  0  0  0  0  0  0  0  0  0  0  # atno 27216 bound_to 9518
  198.1283   -9.0832   39.0240 LP  0  0  0  0  0  0  0  0  0  0  0  0  # atno 27217 bound_to 6635
  187.2574   -8.5677   37.3391 LP  0  0  0  0  0  0  0  0  0  0  0  0  # atno 27218 bound_to 8295
  187.0804   -7.5148   48.0324 LP  0  0  0  0  0  0  0  0  0  0  0  0  # atno 27219 bound_to 10084
  188.7557   -7.3690   47.6178 LP  0  0  0  0  0  0  0  0  0  0  0  0  # atno 27220 bound_to 10084
  187.1753   -4.8714   43.8406 LP  0  0  0  0  0  0  0  0  0  0  0  0  # atno 27221 bound_to 10167
  188.7035   -6.2051   41.2820 LP  0  0  0  0  0  0  0  0  0  0  0  0  # atno 27222 bound_to 10170
  187.2834   -6.2441   40.2913 LP  0  0  0  0  0  0  0  0  0  0  0  0  # atno 27223 bound_to 10170
  195.7684   -9.2327   50.6138 LP  0  0  0  0  0  0  0  0  0  0  0  0  # atno 27224 bound_to 7920
  190.9830   -7.8991   50.2911 LP  0  0  0  0  0  0  0  0  0  0  0  0  # atno 27225 bound_to 7923
  192.1161   -6.5934   50.1858 LP  0  0  0  0  0  0  0  0  0  0  0  0  # atno 27226 bound_to 7923
  199.6689  -11.0437   38.4294 LP  0  0  0  0  0  0  0  0  0  0  0  0  # atno 27227 bound_to 6365
  197.9780  -11.2405   38.7492 LP  0  0  0  0  0  0  0  0  0  0  0  0  # atno 27228 bound_to 6365
  197.4633   -5.0034   42.1002 LP  0  0  0  0  0  0  0  0  0  0  0  0  # atno 27229 bound_to 6784
  196.5654   -5.7431   47.5914 LP  0  0  0  0  0  0  0  0  0  0  0  0  # atno 27230 bound_to 7788
  195.3268   -6.6980   48.3359 LP  0  0  0  0  0  0  0  0  0  0  0  0  # atno 27231 bound_to 7788
  195.0389   -7.1422   51.4807 LP  0  0  0  0  0  0  0  0  0  0  0  0  # atno 27232 bound_to 7715
  194.1425   -5.7810   50.8945 LP  0  0  0  0  0  0  0  0  0  0  0  0  # atno 27233 bound_to 7715
  196.8168   -6.3684   49.6857 LP  0  0  0  0  0  0  0  0  0  0  0  0  # atno 27234 bound_to 7873
  197.9654  -10.1712   51.6236 LP  0  0  0  0  0  0  0  0  0  0  0  0  # atno 27235 bound_to 7878
  198.0012   -8.5386   51.6186 LP  0  0  0  0  0  0  0  0  0  0  0  0  # atno 27236 bound_to 7878

> <Gold.Score>
     Fitness  S(hb_ext) S(vdw_ext)  S(hb_int)    S(int)      intcor
     28.73       0.30      20.92       0.00      -0.33      -0.76

> <Gold.Goldscore.Fitness>
28.7337

> <Gold.Goldscore.Internal.Vdw>
-0.6597

> <Gold.Goldscore.Internal.Torsion>
-0.4303

> <Gold.Goldscore.External.Vdw>
20.9168

> <Gold.Goldscore.Internal.HBond>
0.0000

> <Gold.Goldscore.External.HBond>
0.2983

> <Gold.Goldscore.Internal.Correction>
-0.7650

> <Gold.Goldscore.Hbonds>
donor molecule, donor type, donor heavy atom, donor atom, acceptor molecule, acceptor atom, score
      P1  H  6792  6835       L1    11  0.01
      P1  H  8150  8180       L1    17  0.12

> <Gold.Goldscore.Internal.Vdw.Weighted>
-0.6597

> <Gold.Goldscore.Internal.Torsion.Weighted>
-0.4303

> <Gold.Goldscore.External.Vdw.Weighted>
28.7605

> <Gold.Goldscore.Internal.HBond.Weighted>
0.0000

> <Gold.Goldscore.External.HBond.Weighted>
0.2983

> <Gold.Goldscore.Internal.Correction.Weighted>
-0.7650

> <Gold.Rescore>
     Score     S(PLP)   S(hbond)     S(cho)   S(metal)  DE(clash)   DE(tors)     intcor
     29.12     -22.63       2.64       0.00       0.00       0.00       0.72       ----

> <Gold.PLP.Fitness>
29.1233

> <Gold.PLP.PLP>
-22.6342

> <Gold.PLP.part.hbond>
-4.0000

> <Gold.PLP.part.metal>
0.0000

> <Gold.PLP.part.buried>
-4.8708

> <Gold.PLP.part.nonpolar>
-13.8704

> <Gold.PLP.part.repulsive>
0.4614

> <Gold.PLP.ligand.clash>
0.0000

> <Gold.PLP.ligand.torsion>
0.7154

> <Gold.PLP.Chemscore.Hbond>
2.6400

> <Gold.PLP.Chemscore.CHOScore>
0.0000

> <Gold.PLP.Chemscore.Metal>
0.0000

> <Gold.Chemscore.Hbonds>
donor molecule, donor type, donor heavy atom, donor atom, acceptor molecule, acceptor atom, score
      P1  H  6792  6835       L1    11  0.46
      P1  H  8150  8180       L1    17  0.38

> <Gold.PLP.Chemscore.Internal.Correction>
   9.000000E+99

