#       Name:                CT1002167954
#       Creating user name   hitesit
#       Creation time:       Sun Apr 16 22:58:09 2023


#       File generated by GOLD software.
#

@<TRIPOS>MOLECULE
CT1002167954|ligand_prepared|mol2|1|dock9
    29    30     1
SMALL
NO_CHARGES


@<TRIPOS>ATOM
      1 C1         189.3182 -11.2479  50.6198 C.3            1 RES1               0.0000
      2 C2         189.3390 -10.0573  51.6001 C.ar           1 RES1               0.0000
      3 C3         189.6802 -10.6814  49.2500 C.2            1 RES1               0.0000
      4 C4         190.3214 -12.2617  51.1587 C.2            1 RES1               0.0000
      5 C5         187.9426 -11.9465  50.5145 C.3            1 RES1               0.0000
      6 C6         189.9214  -8.8477  51.2335 C.ar           1 RES1               0.0000
      7 C7         188.7785 -10.1524  52.8710 C.ar           1 RES1               0.0000
      8 N8         190.9251 -10.9522  48.7632 N.am           1 RES1               0.0000
      9 O9         188.8997  -9.9749  48.6241 O.2            1 RES1               0.0000
     10 N10        191.4406 -12.5176  50.4106 N.am           1 RES1               0.0000
     11 O11        190.1610 -12.8289  52.2325 O.2            1 RES1               0.0000
     12 C12        187.9193 -13.1104  49.5362 C.3            1 RES1               0.0000
     13 C13        189.9401  -7.7711  52.1047 C.ar           1 RES1               0.0000
     14 C14        188.7985  -9.0746  53.7408 C.ar           1 RES1               0.0000
     15 C15        191.8029 -11.8861  49.2521 C.2            1 RES1               0.0000
     16 C16        189.3784  -7.8837  53.3586 C.ar           1 RES1               0.0000
     17 O17        192.8526 -12.1329  48.6652 O.2            1 RES1               0.0000
     18 H18        187.6564 -12.3143  51.5076 H              1 RES1               0.0000
     19 H19        187.1943 -11.2077  50.2021 H              1 RES1               0.0000
     20 H20        190.3706  -8.7411  50.2517 H              1 RES1               0.0000
     21 H21        188.3178 -11.0799  53.1936 H              1 RES1               0.0000
     22 H22        191.2316 -10.4102  47.9616 H              1 RES1               0.0000
     23 H23        192.0609 -13.2465  50.7485 H              1 RES1               0.0000
     24 H24        186.9314 -13.5647  49.5007 H              1 RES1               0.0000
     25 H25        188.1748 -12.7760  48.5328 H              1 RES1               0.0000
     26 H26        188.6341 -13.8760  49.8306 H              1 RES1               0.0000
     27 H27        190.3990  -6.8365  51.7996 H              1 RES1               0.0000
     28 H28        188.3558  -9.1679  54.7270 H              1 RES1               0.0000
     29 H29        189.3929  -7.0401  54.0408 H              1 RES1               0.0000
@<TRIPOS>BOND
    1    1    2 1     
    2    1    3 1     
    3    1    4 1     
    4    1    5 1     
    5    2    6 ar    
    6    2    7 ar    
    7    3    8 1     
    8    3    9 2     
    9    4   10 1     
   10    4   11 2     
   11    5   12 1     
   12    5   18 1     
   13    5   19 1     
   14    6   13 ar    
   15    6   20 1     
   16    7   14 ar    
   17    7   21 1     
   18    8   15 1     
   19    8   22 1     
   20   10   15 1     
   21   10   23 1     
   22   12   24 1     
   23   12   25 1     
   24   12   26 1     
   25   13   16 ar    
   26   13   27 1     
   27   14   16 ar    
   28   14   28 1     
   29   15   17 2     
   30   16   29 1     
@<TRIPOS>SUBSTRUCTURE
      1 RES1           1
@<TRIPOS>SET
DONOR_HYDROGENS      STATIC     ATOMS    <user>   **** ""
2 22 23
ATOM$RED        STATIC     ATOMS    COLORGROUP SYSTEM
2 22 23
@<TRIPOS>COMMENT
> <Gold.Version>
2022.3.0

> <Gold.Id.Protein>
unknown|4v3u_clean|pdb

> <Gold.Protein.RotatedTorsions>
[ 6601 6555 6556 6557 ] final   69.62 input  119.23 | X-H torsion
[ 8042 8007 8008 8009 ] final -132.28 input   55.11 | X-H torsion
[ 8119 8084 8085 8086 ] final -127.28 input   97.66 | X-H torsion
[ 8180 8150 8151 8152 ] final   87.38 input   74.82 | X-H torsion
[ 8260 8218 8219 8220 ] final  168.12 input   76.36 | X-H torsion
[ 9557 9518 9517 9515 ] final -135.71 input   59.97 | X-H torsion
[ 6681 6635 6636 6637 ] final  104.94 input  125.14 | X-H torsion
[ 8323 8295 8296 8297 ] final  140.36 input   97.98 | X-H torsion
[ 10202 10167 10168 10169 ] final  -71.37 input   38.66 | X-H torsion
[ 7961 7920 7921 7922 ] final  171.90 input   85.79 | X-H torsion
[ 6824 6784 6785 6786 ] final -159.60 input  126.65 | X-H torsion
[ 7900 7873 7874 7875 ] final -136.64 input  103.19 | X-H torsion
[ 7904 7878 7877 7874 ] final  -46.88 input   60.02 | X-H torsion
[ 27201 6558 6557 6556 ] final  152.58 input    0.00 | X-H torsion
[ 27203 7876 7875 7874 ] final -161.93 input   -0.00 | X-H torsion
[ 27206 8010 8009 8008 ] final  -63.20 input    0.00 | X-H torsion
[ 27209 8087 8086 8085 ] final -116.57 input    0.00 | X-H torsion
[ 27212 8153 8152 8151 ] final   28.00 input   -0.00 | X-H torsion
[ 27219 10084 10083 10082 ] final  152.96 input    0.00 | X-H torsion
[ 27222 10170 10169 10168 ] final  -41.55 input    0.00 | X-H torsion
[ 27225 7923 7922 7921 ] final   99.54 input   -0.00 | X-H torsion
[ 27227 6365 6364 6363 ] final   30.12 input    0.00 | X-H torsion
[ 27230 7788 7787 7786 ] final  113.57 input    0.00 | X-H torsion
[ 27232 7715 7714 7713 ] final  100.14 input    0.00 | X-H torsion

> <Gold.Protein.ActiveResidues>
 THR404  ILE407  TYR408  ALA410  LYS411  TRP414  GLN425  TRP426  SER427  LYS428 
 LEU429  GLN430  VAL431  PHE432  ASP433  TYR453  SER462  ALA463  ILE464 

> <Gold.Protein.RotatedAtoms>
  196.6881   -9.6990   37.7539 H   0  0  0  0  0  0  0  0  0  0  0  0  # atno 6601 bound_to 6555
  198.3021   -9.5478   39.1113 H   0  0  0  0  0  0  0  0  0  0  0  0  # atno 6681 bound_to 6635
  195.8869   -5.5294   42.6239 H   0  0  0  0  0  0  0  0  0  0  0  0  # atno 6824 bound_to 6784
  197.7668   -6.3532   49.6675 H   0  0  0  0  0  0  0  0  0  0  0  0  # atno 7900 bound_to 7873
  198.4125   -8.4299   51.5986 H   0  0  0  0  0  0  0  0  0  0  0  0  # atno 7904 bound_to 7878
  195.7048   -9.0949   50.8845 H   0  0  0  0  0  0  0  0  0  0  0  0  # atno 7961 bound_to 7920
  192.7839   -8.2122   49.1738 H   0  0  0  0  0  0  0  0  0  0  0  0  # atno 8042 bound_to 8007
  190.8468   -8.9993   46.7423 H   0  0  0  0  0  0  0  0  0  0  0  0  # atno 8119 bound_to 8084
  190.3977  -10.1401   43.0296 H   0  0  0  0  0  0  0  0  0  0  0  0  # atno 8180 bound_to 8150
  187.8508   -8.4197   41.0693 H   0  0  0  0  0  0  0  0  0  0  0  0  # atno 8260 bound_to 8218
  188.3011   -9.9518   37.3940 H   0  0  0  0  0  0  0  0  0  0  0  0  # atno 8323 bound_to 8295
  186.1229  -10.9335   48.6434 H   0  0  0  0  0  0  0  0  0  0  0  0  # atno 9557 bound_to 9518
  187.1415   -4.9089   43.7828 H   0  0  0  0  0  0  0  0  0  0  0  0  # atno 10202 bound_to 10167
  195.4126   -8.5020   37.7028 LP  0  0  0  0  0  0  0  0  0  0  0  0  # atno 27200 bound_to 6555
  197.5718   -7.7728   42.0303 LP  0  0  0  0  0  0  0  0  0  0  0  0  # atno 27201 bound_to 6558
  196.0832   -7.2616   41.3073 LP  0  0  0  0  0  0  0  0  0  0  0  0  # atno 27202 bound_to 6558
  194.7361  -10.3396   48.4410 LP  0  0  0  0  0  0  0  0  0  0  0  0  # atno 27203 bound_to 7876
  196.4366  -10.5386   48.1791 LP  0  0  0  0  0  0  0  0  0  0  0  0  # atno 27204 bound_to 7876
  193.4976   -9.0944   47.8422 LP  0  0  0  0  0  0  0  0  0  0  0  0  # atno 27205 bound_to 8007
  192.7699   -9.0364   44.9685 LP  0  0  0  0  0  0  0  0  0  0  0  0  # atno 27206 bound_to 8010
  192.0154  -10.3753   45.7673 LP  0  0  0  0  0  0  0  0  0  0  0  0  # atno 27207 bound_to 8010
  189.8431   -7.6184   46.3674 LP  0  0  0  0  0  0  0  0  0  0  0  0  # atno 27208 bound_to 8084
  188.0938   -7.3432   43.2129 LP  0  0  0  0  0  0  0  0  0  0  0  0  # atno 27209 bound_to 8087
  189.3083   -6.7447   44.2930 LP  0  0  0  0  0  0  0  0  0  0  0  0  # atno 27210 bound_to 8087
  189.3322   -8.8653   43.5715 LP  0  0  0  0  0  0  0  0  0  0  0  0  # atno 27211 bound_to 8150
  189.2333  -11.0809   40.9548 LP  0  0  0  0  0  0  0  0  0  0  0  0  # atno 27212 bound_to 8153
  188.5427  -10.7007   39.4126 LP  0  0  0  0  0  0  0  0  0  0  0  0  # atno 27213 bound_to 8153
  188.9537   -7.9714   39.7916 LP  0  0  0  0  0  0  0  0  0  0  0  0  # atno 27214 bound_to 8218
  186.5445  -11.5314   47.1897 LP  0  0  0  0  0  0  0  0  0  0  0  0  # atno 27215 bound_to 9518
  185.6204  -12.4176   48.2033 LP  0  0  0  0  0  0  0  0  0  0  0  0  # atno 27216 bound_to 9518
  197.3802   -9.0068   40.4951 LP  0  0  0  0  0  0  0  0  0  0  0  0  # atno 27217 bound_to 6635
  187.0819   -8.7029   37.2480 LP  0  0  0  0  0  0  0  0  0  0  0  0  # atno 27218 bound_to 8295
  187.4225   -7.3897   47.1168 LP  0  0  0  0  0  0  0  0  0  0  0  0  # atno 27219 bound_to 10084
  188.4136   -7.4941   48.5334 LP  0  0  0  0  0  0  0  0  0  0  0  0  # atno 27220 bound_to 10084
  188.8628   -5.2104   43.8655 LP  0  0  0  0  0  0  0  0  0  0  0  0  # atno 27221 bound_to 10167
  188.8061   -6.1570   41.0783 LP  0  0  0  0  0  0  0  0  0  0  0  0  # atno 27222 bound_to 10170
  187.1808   -6.2921   40.4950 LP  0  0  0  0  0  0  0  0  0  0  0  0  # atno 27223 bound_to 10170
  195.2522   -7.9389   49.6499 LP  0  0  0  0  0  0  0  0  0  0  0  0  # atno 27224 bound_to 7920
  192.0890   -6.5786   50.1228 LP  0  0  0  0  0  0  0  0  0  0  0  0  # atno 27225 bound_to 7923
  191.0102   -7.9138   50.3542 LP  0  0  0  0  0  0  0  0  0  0  0  0  # atno 27226 bound_to 7923
  198.9074  -11.9267   38.9462 LP  0  0  0  0  0  0  0  0  0  0  0  0  # atno 27227 bound_to 6365
  198.7395  -10.3576   38.2324 LP  0  0  0  0  0  0  0  0  0  0  0  0  # atno 27228 bound_to 6365
  197.4223   -4.8579   42.1222 LP  0  0  0  0  0  0  0  0  0  0  0  0  # atno 27229 bound_to 6784
  196.6978   -6.4057   47.5754 LP  0  0  0  0  0  0  0  0  0  0  0  0  # atno 27230 bound_to 7788
  195.1944   -6.0354   48.3519 LP  0  0  0  0  0  0  0  0  0  0  0  0  # atno 27231 bound_to 7788
  194.1870   -5.7767   50.8442 LP  0  0  0  0  0  0  0  0  0  0  0  0  # atno 27232 bound_to 7715
  194.9944   -7.1465   51.5311 LP  0  0  0  0  0  0  0  0  0  0  0  0  # atno 27233 bound_to 7715
  196.8454   -7.0664   50.9633 LP  0  0  0  0  0  0  0  0  0  0  0  0  # atno 27234 bound_to 7873
  199.2901   -9.8000   51.5664 LP  0  0  0  0  0  0  0  0  0  0  0  0  # atno 27235 bound_to 7878
  197.6602   -9.8724   51.6359 LP  0  0  0  0  0  0  0  0  0  0  0  0  # atno 27236 bound_to 7878

> <Gold.Score>
     Fitness  S(hb_ext) S(vdw_ext)  S(hb_int)    S(int)      intcor
     27.45       0.88      20.71       0.00      -1.91      -0.76

> <Gold.Goldscore.Fitness>
27.4527

> <Gold.Goldscore.Internal.Vdw>
-2.2956

> <Gold.Goldscore.Internal.Torsion>
-0.3674

> <Gold.Goldscore.External.Vdw>
20.7107

> <Gold.Goldscore.Internal.HBond>
0.0000

> <Gold.Goldscore.External.HBond>
0.8818

> <Gold.Goldscore.Internal.Correction>
-0.7566

> <Gold.Goldscore.Hbonds>
donor molecule, donor type, donor heavy atom, donor atom, acceptor molecule, acceptor atom, score
      L1  H     8    22       P1  8010  0.44

> <Gold.Goldscore.Internal.Vdw.Weighted>
-2.2956

> <Gold.Goldscore.Internal.Torsion.Weighted>
-0.3674

> <Gold.Goldscore.External.Vdw.Weighted>
28.4772

> <Gold.Goldscore.Internal.HBond.Weighted>
0.0000

> <Gold.Goldscore.External.HBond.Weighted>
0.8818

> <Gold.Goldscore.Internal.Correction.Weighted>
-0.7566

> <Gold.Rescore>
     Score     S(PLP)   S(hbond)     S(cho)   S(metal)  DE(clash)   DE(tors)     intcor
     37.96     -37.31       0.91       0.00       0.00       2.04       0.02       ----

> <Gold.PLP.Fitness>
37.9581

> <Gold.PLP.PLP>
-37.3147

> <Gold.PLP.part.hbond>
-1.9359

> <Gold.PLP.part.metal>
0.0000

> <Gold.PLP.part.buried>
-7.2307

> <Gold.PLP.part.nonpolar>
-29.6863

> <Gold.PLP.part.repulsive>
0.3134

> <Gold.PLP.ligand.clash>
2.0444

> <Gold.PLP.ligand.torsion>
0.0241

> <Gold.PLP.Chemscore.Hbond>
0.9120

> <Gold.PLP.Chemscore.CHOScore>
0.0000

> <Gold.PLP.Chemscore.Metal>
0.0000

> <Gold.PLP.Chemscore.Internal.Correction>
   9.000000E+99

