#       Name:                CT1002167954
#       Creating user name   hitesit
#       Creation time:       Sun Apr 16 22:58:10 2023


#       File generated by GOLD software.
#

@<TRIPOS>MOLECULE
CT1002167954|ligand_prepared|mol2|1|dock10
    29    30     1
SMALL
NO_CHARGES


@<TRIPOS>ATOM
      1 C1         189.9249 -12.6333  49.1094 C.3            1 RES1               0.0000
      2 C2         190.5263 -12.9629  47.7280 C.ar           1 RES1               0.0000
      3 C3         190.6410 -11.3785  49.6002 C.2            1 RES1               0.0000
      4 C4         188.4273 -12.4493  48.8898 C.2            1 RES1               0.0000
      5 C5         190.1199 -13.7523  50.1589 C.3            1 RES1               0.0000
      6 C6         190.0750 -14.0613  47.0024 C.ar           1 RES1               0.0000
      7 C7         191.5294 -12.1776  47.1659 C.ar           1 RES1               0.0000
      8 N8         189.9463 -10.2050  49.5779 N.am           1 RES1               0.0000
      9 O9         191.8101 -11.4109  49.9640 O.2            1 RES1               0.0000
     10 N10        187.8965 -11.2029  49.0959 N.am           1 RES1               0.0000
     11 O11        187.7051 -13.3685  48.5240 O.2            1 RES1               0.0000
     12 C12        189.6202 -13.3848  51.5472 C.3            1 RES1               0.0000
     13 C13        190.6051 -14.3622  45.7587 C.ar           1 RES1               0.0000
     14 C14        192.0583 -12.4804  45.9221 C.ar           1 RES1               0.0000
     15 C15        188.5933 -10.0653  49.4003 C.2            1 RES1               0.0000
     16 C16        191.5966 -13.5719  45.2176 C.ar           1 RES1               0.0000
     17 O17        188.0519  -8.9697  49.5164 O.2            1 RES1               0.0000
     18 H18        189.5902 -14.6510  49.8194 H              1 RES1               0.0000
     19 H19        191.1877 -13.9959  50.2210 H              1 RES1               0.0000
     20 H20        189.2971 -14.6962  47.4132 H              1 RES1               0.0000
     21 H21        191.9087 -11.3147  47.7027 H              1 RES1               0.0000
     22 H22        190.4825  -9.3526  49.7050 H              1 RES1               0.0000
     23 H23        186.8885 -11.1150  49.0152 H              1 RES1               0.0000
     24 H24        189.7809 -14.2043  52.2445 H              1 RES1               0.0000
     25 H25        190.1436 -12.5095  51.9264 H              1 RES1               0.0000
     26 H26        188.5556 -13.1607  51.5271 H              1 RES1               0.0000
     27 H27        190.2393 -15.2230  45.2088 H              1 RES1               0.0000
     28 H28        192.8390 -11.8560  45.5004 H              1 RES1               0.0000
     29 H29        192.0114 -13.8076  44.2431 H              1 RES1               0.0000
@<TRIPOS>BOND
    1    1    2 1     
    2    1    3 1     
    3    1    4 1     
    4    1    5 1     
    5    2    6 ar    
    6    2    7 ar    
    7    3    8 1     
    8    3    9 2     
    9    4   10 1     
   10    4   11 2     
   11    5   12 1     
   12    5   18 1     
   13    5   19 1     
   14    6   13 ar    
   15    6   20 1     
   16    7   14 ar    
   17    7   21 1     
   18    8   15 1     
   19    8   22 1     
   20   10   15 1     
   21   10   23 1     
   22   12   24 1     
   23   12   25 1     
   24   12   26 1     
   25   13   16 ar    
   26   13   27 1     
   27   14   16 ar    
   28   14   28 1     
   29   15   17 2     
   30   16   29 1     
@<TRIPOS>SUBSTRUCTURE
      1 RES1           1
@<TRIPOS>SET
DONOR_HYDROGENS      STATIC     ATOMS    <user>   **** ""
2 22 23
ATOM$RED        STATIC     ATOMS    COLORGROUP SYSTEM
2 22 23
@<TRIPOS>COMMENT
> <Gold.Version>
2022.3.0

> <Gold.Id.Protein>
unknown|4v3u_clean|pdb

> <Gold.Protein.RotatedTorsions>
[ 6601 6555 6556 6557 ] final  -54.78 input  119.23 | X-H torsion
[ 8042 8007 8008 8009 ] final  -63.22 input   55.11 | X-H torsion
[ 8119 8084 8085 8086 ] final  125.65 input   97.66 | X-H torsion
[ 8180 8150 8151 8152 ] final -144.70 input   74.82 | X-H torsion
[ 8260 8218 8219 8220 ] final  -58.69 input   76.36 | X-H torsion
[ 9557 9518 9517 9515 ] final   23.94 input   59.97 | X-H torsion
[ 6681 6635 6636 6637 ] final   12.57 input  125.14 | X-H torsion
[ 8323 8295 8296 8297 ] final  -34.27 input   97.98 | X-H torsion
[ 10202 10167 10168 10169 ] final  167.91 input   38.66 | X-H torsion
[ 7961 7920 7921 7922 ] final   56.21 input   85.79 | X-H torsion
[ 6824 6784 6785 6786 ] final   91.32 input  126.65 | X-H torsion
[ 7900 7873 7874 7875 ] final  136.83 input  103.19 | X-H torsion
[ 7904 7878 7877 7874 ] final  -87.69 input   60.02 | X-H torsion
[ 27201 6558 6557 6556 ] final -146.23 input    0.00 | X-H torsion
[ 27203 7876 7875 7874 ] final -101.37 input   -0.00 | X-H torsion
[ 27206 8010 8009 8008 ] final  154.68 input    0.00 | X-H torsion
[ 27209 8087 8086 8085 ] final  153.32 input    0.00 | X-H torsion
[ 27212 8153 8152 8151 ] final -147.54 input   -0.00 | X-H torsion
[ 27219 10084 10083 10082 ] final    4.41 input    0.00 | X-H torsion
[ 27222 10170 10169 10168 ] final  147.36 input    0.00 | X-H torsion
[ 27225 7923 7922 7921 ] final   67.01 input   -0.00 | X-H torsion
[ 27227 6365 6364 6363 ] final   60.09 input    0.00 | X-H torsion
[ 27230 7788 7787 7786 ] final  -43.60 input    0.00 | X-H torsion
[ 27232 7715 7714 7713 ] final  139.17 input    0.00 | X-H torsion

> <Gold.Protein.ActiveResidues>
 THR404  ILE407  TYR408  ALA410  LYS411  TRP414  GLN425  TRP426  SER427  LYS428 
 LEU429  GLN430  VAL431  PHE432  ASP433  TYR453  SER462  ALA463  ILE464 

> <Gold.Protein.RotatedAtoms>
  196.1680   -8.2173   37.8260 H   0  0  0  0  0  0  0  0  0  0  0  0  # atno 6601 bound_to 6555
  197.6746   -8.4844   39.4434 H   0  0  0  0  0  0  0  0  0  0  0  0  # atno 6681 bound_to 6635
  197.2155   -5.8513   42.1532 H   0  0  0  0  0  0  0  0  0  0  0  0  # atno 6824 bound_to 6784
  198.0733   -6.9127   50.6815 H   0  0  0  0  0  0  0  0  0  0  0  0  # atno 7900 bound_to 7873
  199.0334   -8.6302   51.5725 H   0  0  0  0  0  0  0  0  0  0  0  0  # atno 7904 bound_to 7878
  195.1833   -7.7198   50.5535 H   0  0  0  0  0  0  0  0  0  0  0  0  # atno 7961 bound_to 7920
  192.4137   -9.0667   48.7920 H   0  0  0  0  0  0  0  0  0  0  0  0  # atno 8042 bound_to 8007
  189.6374   -8.3359   47.0901 H   0  0  0  0  0  0  0  0  0  0  0  0  # atno 8119 bound_to 8084
  190.0785   -8.7287   43.6858 H   0  0  0  0  0  0  0  0  0  0  0  0  # atno 8180 bound_to 8150
  189.0344   -8.6329   39.9854 H   0  0  0  0  0  0  0  0  0  0  0  0  # atno 8260 bound_to 8218
  187.0172   -8.7346   37.1927 H   0  0  0  0  0  0  0  0  0  0  0  0  # atno 8323 bound_to 8295
  185.8842  -12.4506   47.6241 H   0  0  0  0  0  0  0  0  0  0  0  0  # atno 9557 bound_to 9518
  188.5428   -4.5458   44.3185 H   0  0  0  0  0  0  0  0  0  0  0  0  # atno 10202 bound_to 10167
  195.9167   -9.9383   37.6330 LP  0  0  0  0  0  0  0  0  0  0  0  0  # atno 27200 bound_to 6555
  197.5619   -7.1217   41.4360 LP  0  0  0  0  0  0  0  0  0  0  0  0  # atno 27201 bound_to 6558
  196.0931   -7.9127   41.9016 LP  0  0  0  0  0  0  0  0  0  0  0  0  # atno 27202 bound_to 6558
  195.1369   -9.9027   47.7999 LP  0  0  0  0  0  0  0  0  0  0  0  0  # atno 27203 bound_to 7876
  196.0358  -10.9756   48.8202 LP  0  0  0  0  0  0  0  0  0  0  0  0  # atno 27204 bound_to 7876
  193.8568   -8.2651   48.2128 LP  0  0  0  0  0  0  0  0  0  0  0  0  # atno 27205 bound_to 8007
  191.7216  -10.2496   45.3048 LP  0  0  0  0  0  0  0  0  0  0  0  0  # atno 27206 bound_to 8010
  193.0638   -9.1621   45.4311 LP  0  0  0  0  0  0  0  0  0  0  0  0  # atno 27207 bound_to 8010
  191.0237   -8.2660   46.0279 LP  0  0  0  0  0  0  0  0  0  0  0  0  # atno 27208 bound_to 8084
  189.2225   -6.8834   43.0804 LP  0  0  0  0  0  0  0  0  0  0  0  0  # atno 27209 bound_to 8087
  188.1796   -7.2045   44.4255 LP  0  0  0  0  0  0  0  0  0  0  0  0  # atno 27210 bound_to 8087
  189.6439  -10.2436   42.9307 LP  0  0  0  0  0  0  0  0  0  0  0  0  # atno 27211 bound_to 8150
  188.6053  -10.6970   39.3884 LP  0  0  0  0  0  0  0  0  0  0  0  0  # atno 27212 bound_to 8153
  189.1707  -11.0846   40.9791 LP  0  0  0  0  0  0  0  0  0  0  0  0  # atno 27213 bound_to 8153
  187.7940   -7.7626   40.8537 LP  0  0  0  0  0  0  0  0  0  0  0  0  # atno 27214 bound_to 8218
  185.7780  -11.4164   48.8761 LP  0  0  0  0  0  0  0  0  0  0  0  0  # atno 27215 bound_to 9518
  186.6274  -11.0050   47.5434 LP  0  0  0  0  0  0  0  0  0  0  0  0  # atno 27216 bound_to 9518
  197.9911  -10.0422   40.1718 LP  0  0  0  0  0  0  0  0  0  0  0  0  # atno 27217 bound_to 6635
  188.3208   -9.8774   37.4422 LP  0  0  0  0  0  0  0  0  0  0  0  0  # atno 27218 bound_to 8295
  187.9712   -7.5374   48.6842 LP  0  0  0  0  0  0  0  0  0  0  0  0  # atno 27219 bound_to 10084
  187.8649   -7.3465   46.9660 LP  0  0  0  0  0  0  0  0  0  0  0  0  # atno 27220 bound_to 10084
  187.5034   -5.5627   43.3458 LP  0  0  0  0  0  0  0  0  0  0  0  0  # atno 27221 bound_to 10167
  187.2331   -6.2648   40.3740 LP  0  0  0  0  0  0  0  0  0  0  0  0  # atno 27222 bound_to 10170
  188.7538   -6.1844   41.1993 LP  0  0  0  0  0  0  0  0  0  0  0  0  # atno 27223 bound_to 10170
  195.7562   -9.2679   49.9699 LP  0  0  0  0  0  0  0  0  0  0  0  0  # atno 27224 bound_to 7920
  192.1964   -6.7664   50.5570 LP  0  0  0  0  0  0  0  0  0  0  0  0  # atno 27225 bound_to 7923
  190.9028   -7.7260   49.9200 LP  0  0  0  0  0  0  0  0  0  0  0  0  # atno 27226 bound_to 7923
  199.3235  -11.8057   38.8335 LP  0  0  0  0  0  0  0  0  0  0  0  0  # atno 27227 bound_to 6365
  198.3234  -10.4786   38.3451 LP  0  0  0  0  0  0  0  0  0  0  0  0  # atno 27228 bound_to 6365
  196.1323   -4.5454   42.5793 LP  0  0  0  0  0  0  0  0  0  0  0  0  # atno 27229 bound_to 6784
  195.3054   -5.7227   48.2663 LP  0  0  0  0  0  0  0  0  0  0  0  0  # atno 27230 bound_to 7788
  196.5868   -6.7184   47.6610 LP  0  0  0  0  0  0  0  0  0  0  0  0  # atno 27231 bound_to 7788
  194.6478   -5.9116   50.5211 LP  0  0  0  0  0  0  0  0  0  0  0  0  # atno 27232 bound_to 7715
  194.5337   -7.0115   51.8541 LP  0  0  0  0  0  0  0  0  0  0  0  0  # atno 27233 bound_to 7715
  196.5408   -6.5104   49.9557 LP  0  0  0  0  0  0  0  0  0  0  0  0  # atno 27234 bound_to 7873
  198.8030  -10.2411   51.5880 LP  0  0  0  0  0  0  0  0  0  0  0  0  # atno 27235 bound_to 7878
  197.5220   -9.2297   51.6404 LP  0  0  0  0  0  0  0  0  0  0  0  0  # atno 27236 bound_to 7878

> <Gold.Score>
     Fitness  S(hb_ext) S(vdw_ext)  S(hb_int)    S(int)      intcor
     27.05       2.42      20.27       0.00      -3.24      -0.76

> <Gold.Goldscore.Fitness>
27.0517

> <Gold.Goldscore.Internal.Vdw>
-3.5960

> <Gold.Goldscore.Internal.Torsion>
-0.3996

> <Gold.Goldscore.External.Vdw>
20.2679

> <Gold.Goldscore.Internal.HBond>
0.0000

> <Gold.Goldscore.External.HBond>
2.4223

> <Gold.Goldscore.Internal.Correction>
-0.7566

> <Gold.Goldscore.Hbonds>
donor molecule, donor type, donor heavy atom, donor atom, acceptor molecule, acceptor atom, score
      P1  H  8007  8042       L1     9  0.06
      P1  H  8084  8119       L1    17  0.02
      L1  H     8    22       P1  7923  1.00
      L1  H    10    23       P1  9518  0.13

> <Gold.Goldscore.Internal.Vdw.Weighted>
-3.5960

> <Gold.Goldscore.Internal.Torsion.Weighted>
-0.3996

> <Gold.Goldscore.External.Vdw.Weighted>
27.8684

> <Gold.Goldscore.Internal.HBond.Weighted>
0.0000

> <Gold.Goldscore.External.HBond.Weighted>
2.4223

> <Gold.Goldscore.Internal.Correction.Weighted>
-0.7566

> <Gold.Rescore>
     Score     S(PLP)   S(hbond)     S(cho)   S(metal)  DE(clash)   DE(tors)     intcor
     21.06     -19.68       0.94       0.00       0.00       1.38       0.02       ----

> <Gold.PLP.Fitness>
21.0636

> <Gold.PLP.PLP>
-19.6803

> <Gold.PLP.part.hbond>
-2.0000

> <Gold.PLP.part.metal>
0.0000

> <Gold.PLP.part.buried>
-5.6597

> <Gold.PLP.part.nonpolar>
-12.7879

> <Gold.PLP.part.repulsive>
0.2564

> <Gold.PLP.ligand.clash>
1.3818

> <Gold.PLP.ligand.torsion>
0.0221

> <Gold.PLP.Chemscore.Hbond>
0.9364

> <Gold.PLP.Chemscore.CHOScore>
0.0000

> <Gold.PLP.Chemscore.Metal>
0.0000

> <Gold.Chemscore.Hbonds>
donor molecule, donor type, donor heavy atom, donor atom, acceptor molecule, acceptor atom, score
      L1  H     8    22       P1  7923  0.05
      L1  H    10    23       P1  9518  0.69
      P1  H  9518  9557       L1    11  0.14

> <Gold.PLP.Chemscore.Internal.Correction>
   9.000000E+99

