#       Name:                CT1002167954
#       Creating user name   hitesit
#       Creation time:       Sun Apr 16 22:58:07 2023


#       File generated by GOLD software.
#

@<TRIPOS>MOLECULE
CT1002167954|ligand_prepared|mol2|1|dock4
    29    30     1
SMALL
NO_CHARGES


@<TRIPOS>ATOM
      1 C1         192.2720 -13.2115  44.9726 C.3            1 RES1               0.0000
      2 C2         192.4348 -14.7184  45.2581 C.ar           1 RES1               0.0000
      3 C3         190.7708 -12.9392  44.9514 C.2            1 RES1               0.0000
      4 C4         193.0207 -12.4834  46.0835 C.2            1 RES1               0.0000
      5 C5         192.8716 -12.7636  43.6193 C.3            1 RES1               0.0000
      6 C6         193.6009 -15.3862  44.8963 C.ar           1 RES1               0.0000
      7 C7         191.4306 -15.4522  45.8840 C.ar           1 RES1               0.0000
      8 N8         190.2327 -12.2817  46.0182 N.am           1 RES1               0.0000
      9 O9         190.0633 -13.3303  44.0311 O.2            1 RES1               0.0000
     10 N10        192.2902 -11.7231  46.9587 N.am           1 RES1               0.0000
     11 O11        194.2346 -12.5747  46.2188 O.2            1 RES1               0.0000
     12 C12        192.4203 -11.3808  43.1763 C.3            1 RES1               0.0000
     13 C13        193.7587 -16.7380  45.1534 C.ar           1 RES1               0.0000
     14 C14        191.5903 -16.8040  46.1399 C.ar           1 RES1               0.0000
     15 C15        190.9268 -11.6139  46.9950 C.2            1 RES1               0.0000
     16 C16        192.7538 -17.4476  45.7757 C.ar           1 RES1               0.0000
     17 O17        190.3390 -10.9537  47.8469 O.2            1 RES1               0.0000
     18 H18        193.9657 -12.7694  43.6986 H              1 RES1               0.0000
     19 H19        192.5874 -13.4913  42.8491 H              1 RES1               0.0000
     20 H20        194.4016 -14.8448  44.4034 H              1 RES1               0.0000
     21 H21        190.5062 -14.9669  46.1784 H              1 RES1               0.0000
     22 H22        189.2208 -12.2871  46.0971 H              1 RES1               0.0000
     23 H23        192.8111 -11.1889  47.6469 H              1 RES1               0.0000
     24 H24        192.8699 -11.1157  42.2217 H              1 RES1               0.0000
     25 H25        191.3388 -11.3459  43.0629 H              1 RES1               0.0000
     26 H26        192.7089 -10.6283  43.9074 H              1 RES1               0.0000
     27 H27        194.6757 -17.2402  44.8634 H              1 RES1               0.0000
     28 H28        190.7966 -17.3587  46.6294 H              1 RES1               0.0000
     29 H29        192.8778 -18.5065  45.9773 H              1 RES1               0.0000
@<TRIPOS>BOND
    1    1    2 1     
    2    1    3 1     
    3    1    4 1     
    4    1    5 1     
    5    2    6 ar    
    6    2    7 ar    
    7    3    8 1     
    8    3    9 2     
    9    4   10 1     
   10    4   11 2     
   11    5   12 1     
   12    5   18 1     
   13    5   19 1     
   14    6   13 ar    
   15    6   20 1     
   16    7   14 ar    
   17    7   21 1     
   18    8   15 1     
   19    8   22 1     
   20   10   15 1     
   21   10   23 1     
   22   12   24 1     
   23   12   25 1     
   24   12   26 1     
   25   13   16 ar    
   26   13   27 1     
   27   14   16 ar    
   28   14   28 1     
   29   15   17 2     
   30   16   29 1     
@<TRIPOS>SUBSTRUCTURE
      1 RES1           1
@<TRIPOS>SET
DONOR_HYDROGENS      STATIC     ATOMS    <user>   **** ""
2 22 23
ATOM$RED        STATIC     ATOMS    COLORGROUP SYSTEM
2 22 23
@<TRIPOS>COMMENT
> <Gold.Version>
2022.3.0

> <Gold.Id.Protein>
unknown|4v3u_clean|pdb

> <Gold.Protein.RotatedTorsions>
[ 6601 6555 6556 6557 ] final -135.61 input  119.23 | X-H torsion
[ 8042 8007 8008 8009 ] final -173.62 input   55.11 | X-H torsion
[ 8119 8084 8085 8086 ] final -177.07 input   97.66 | X-H torsion
[ 8180 8150 8151 8152 ] final  147.24 input   74.82 | X-H torsion
[ 8260 8218 8219 8220 ] final  -81.09 input   76.36 | X-H torsion
[ 9557 9518 9517 9515 ] final  164.16 input   59.97 | X-H torsion
[ 6681 6635 6636 6637 ] final  -94.07 input  125.14 | X-H torsion
[ 8323 8295 8296 8297 ] final  127.16 input   97.98 | X-H torsion
[ 10202 10167 10168 10169 ] final    3.59 input   38.66 | X-H torsion
[ 7961 7920 7921 7922 ] final  142.98 input   85.79 | X-H torsion
[ 6824 6784 6785 6786 ] final   77.27 input  126.65 | X-H torsion
[ 7900 7873 7874 7875 ] final  -53.85 input  103.19 | X-H torsion
[ 7904 7878 7877 7874 ] final  -20.82 input   60.02 | X-H torsion
[ 27201 6558 6557 6556 ] final   37.25 input    0.00 | X-H torsion
[ 27203 7876 7875 7874 ] final   23.05 input   -0.00 | X-H torsion
[ 27206 8010 8009 8008 ] final -102.52 input    0.00 | X-H torsion
[ 27209 8087 8086 8085 ] final  100.76 input    0.00 | X-H torsion
[ 27212 8153 8152 8151 ] final    5.32 input   -0.00 | X-H torsion
[ 27219 10084 10083 10082 ] final -144.99 input    0.00 | X-H torsion
[ 27222 10170 10169 10168 ] final  155.39 input    0.00 | X-H torsion
[ 27225 7923 7922 7921 ] final  -57.19 input   -0.00 | X-H torsion
[ 27227 6365 6364 6363 ] final   44.37 input    0.00 | X-H torsion
[ 27230 7788 7787 7786 ] final   29.76 input    0.00 | X-H torsion
[ 27232 7715 7714 7713 ] final -113.56 input    0.00 | X-H torsion

> <Gold.Protein.ActiveResidues>
 THR404  ILE407  TYR408  ALA410  LYS411  TRP414  GLN425  TRP426  SER427  LYS428 
 LEU429  GLN430  VAL431  PHE432  ASP433  TYR453  SER462  ALA463  ILE464 

> <Gold.Protein.RotatedAtoms>
  195.1972   -8.8174   37.6692 H   0  0  0  0  0  0  0  0  0  0  0  0  # atno 6601 bound_to 6555
  197.4496   -9.2637   40.6102 H   0  0  0  0  0  0  0  0  0  0  0  0  # atno 6681 bound_to 6635
  197.3540   -5.6884   42.1151 H   0  0  0  0  0  0  0  0  0  0  0  0  # atno 6824 bound_to 6784
  196.6268   -6.4273   49.8440 H   0  0  0  0  0  0  0  0  0  0  0  0  # atno 7900 bound_to 7873
  198.0061   -8.5433   51.6161 H   0  0  0  0  0  0  0  0  0  0  0  0  # atno 7904 bound_to 7878
  195.5800   -8.7334   51.1113 H   0  0  0  0  0  0  0  0  0  0  0  0  # atno 7961 bound_to 7920
  193.2974   -7.9199   48.9647 H   0  0  0  0  0  0  0  0  0  0  0  0  # atno 8042 bound_to 8007
  190.2266   -8.9426   47.1504 H   0  0  0  0  0  0  0  0  0  0  0  0  # atno 8119 bound_to 8084
  190.7335   -9.4149   43.4037 H   0  0  0  0  0  0  0  0  0  0  0  0  # atno 8180 bound_to 8150
  188.9205   -8.8751   40.1994 H   0  0  0  0  0  0  0  0  0  0  0  0  # atno 8260 bound_to 8218
  188.1541  -10.0715   37.3163 H   0  0  0  0  0  0  0  0  0  0  0  0  # atno 8323 bound_to 8295
  186.5683  -10.8402   47.8230 H   0  0  0  0  0  0  0  0  0  0  0  0  # atno 9557 bound_to 9518
  187.7000   -5.6769   43.2671 H   0  0  0  0  0  0  0  0  0  0  0  0  # atno 10202 bound_to 10167
  196.8579   -9.3566   37.7849 LP  0  0  0  0  0  0  0  0  0  0  0  0  # atno 27200 bound_to 6555
  196.1215   -7.9429   41.9340 LP  0  0  0  0  0  0  0  0  0  0  0  0  # atno 27201 bound_to 6558
  197.5335   -7.0915   41.4036 LP  0  0  0  0  0  0  0  0  0  0  0  0  # atno 27202 bound_to 6558
  196.4365  -10.5868   48.2368 LP  0  0  0  0  0  0  0  0  0  0  0  0  # atno 27203 bound_to 7876
  194.7362  -10.2914   48.3833 LP  0  0  0  0  0  0  0  0  0  0  0  0  # atno 27204 bound_to 7876
  192.9992   -9.3780   48.0451 LP  0  0  0  0  0  0  0  0  0  0  0  0  # atno 27205 bound_to 8007
  192.2993   -9.2038   44.6685 LP  0  0  0  0  0  0  0  0  0  0  0  0  # atno 27206 bound_to 8010
  192.4860  -10.2079   46.0674 LP  0  0  0  0  0  0  0  0  0  0  0  0  # atno 27207 bound_to 8010
  190.4485   -7.6738   45.9690 LP  0  0  0  0  0  0  0  0  0  0  0  0  # atno 27208 bound_to 8084
  189.4994   -6.7090   43.7739 LP  0  0  0  0  0  0  0  0  0  0  0  0  # atno 27209 bound_to 8087
  187.9027   -7.3789   43.7320 LP  0  0  0  0  0  0  0  0  0  0  0  0  # atno 27210 bound_to 8087
  189.0043   -9.5734   43.2062 LP  0  0  0  0  0  0  0  0  0  0  0  0  # atno 27211 bound_to 8150
  189.5127  -11.0449   40.7634 LP  0  0  0  0  0  0  0  0  0  0  0  0  # atno 27212 bound_to 8153
  188.2633  -10.7366   39.6041 LP  0  0  0  0  0  0  0  0  0  0  0  0  # atno 27213 bound_to 8153
  187.9056   -7.5252   40.6441 LP  0  0  0  0  0  0  0  0  0  0  0  0  # atno 27214 bound_to 8218
  186.0671  -12.3239   47.3805 LP  0  0  0  0  0  0  0  0  0  0  0  0  # atno 27215 bound_to 9518
  185.6494  -11.7190   48.8387 LP  0  0  0  0  0  0  0  0  0  0  0  0  # atno 27216 bound_to 9518
  198.2102   -9.2834   39.0359 LP  0  0  0  0  0  0  0  0  0  0  0  0  # atno 27217 bound_to 6635
  187.2238   -8.5874   37.3230 LP  0  0  0  0  0  0  0  0  0  0  0  0  # atno 27218 bound_to 8295
  188.3115   -7.3313   47.0616 LP  0  0  0  0  0  0  0  0  0  0  0  0  # atno 27219 bound_to 10084
  187.5246   -7.5525   48.5886 LP  0  0  0  0  0  0  0  0  0  0  0  0  # atno 27220 bound_to 10084
  188.3210   -4.4654   44.3657 LP  0  0  0  0  0  0  0  0  0  0  0  0  # atno 27221 bound_to 10167
  187.2960   -6.2393   40.2735 LP  0  0  0  0  0  0  0  0  0  0  0  0  # atno 27222 bound_to 10170
  188.6909   -6.2098   41.2998 LP  0  0  0  0  0  0  0  0  0  0  0  0  # atno 27223 bound_to 10170
  195.3728   -8.2883   49.4308 LP  0  0  0  0  0  0  0  0  0  0  0  0  # atno 27224 bound_to 7920
  191.1951   -7.9205   50.6504 LP  0  0  0  0  0  0  0  0  0  0  0  0  # atno 27225 bound_to 7923
  191.9040   -6.5719   49.8265 LP  0  0  0  0  0  0  0  0  0  0  0  0  # atno 27226 bound_to 7923
  199.1154  -11.8946   38.9032 LP  0  0  0  0  0  0  0  0  0  0  0  0  # atno 27227 bound_to 6365
  198.5314  -10.3897   38.2754 LP  0  0  0  0  0  0  0  0  0  0  0  0  # atno 27228 bound_to 6365
  195.9979   -4.7035   42.6163 LP  0  0  0  0  0  0  0  0  0  0  0  0  # atno 27229 bound_to 6784
  196.1606   -5.4018   47.7804 LP  0  0  0  0  0  0  0  0  0  0  0  0  # atno 27230 bound_to 7788
  195.7316   -7.0393   48.1469 LP  0  0  0  0  0  0  0  0  0  0  0  0  # atno 27231 bound_to 7788
  195.2531   -7.0155   51.1212 LP  0  0  0  0  0  0  0  0  0  0  0  0  # atno 27232 bound_to 7715
  193.9284   -5.9076   51.2540 LP  0  0  0  0  0  0  0  0  0  0  0  0  # atno 27233 bound_to 7715
  197.9782   -6.9927   50.7879 LP  0  0  0  0  0  0  0  0  0  0  0  0  # atno 27234 bound_to 7873
  199.3959   -9.3882   51.5610 LP  0  0  0  0  0  0  0  0  0  0  0  0  # atno 27235 bound_to 7878
  197.9636  -10.1701   51.6236 LP  0  0  0  0  0  0  0  0  0  0  0  0  # atno 27236 bound_to 7878

> <Gold.Score>
     Fitness  S(hb_ext) S(vdw_ext)  S(hb_int)    S(int)      intcor
     25.09       4.34      15.85       0.00      -1.05      -0.76

> <Gold.Goldscore.Fitness>
25.0896

> <Gold.Goldscore.Internal.Vdw>
-1.1260

> <Gold.Goldscore.Internal.Torsion>
-0.6923

> <Gold.Goldscore.External.Vdw>
15.8537

> <Gold.Goldscore.Internal.HBond>
0.0000

> <Gold.Goldscore.External.HBond>
4.3441

> <Gold.Goldscore.Internal.Correction>
-0.7650

> <Gold.Goldscore.Hbonds>
donor molecule, donor type, donor heavy atom, donor atom, acceptor molecule, acceptor atom, score
      P1  H  6792  6835       L1    11  0.34
      P1  H  8084  8119       L1    17  0.01
      L1  H     8    22       P1  8092  0.38

> <Gold.Goldscore.Internal.Vdw.Weighted>
-1.1260

> <Gold.Goldscore.Internal.Torsion.Weighted>
-0.6923

> <Gold.Goldscore.External.Vdw.Weighted>
21.7989

> <Gold.Goldscore.Internal.HBond.Weighted>
0.0000

> <Gold.Goldscore.External.HBond.Weighted>
4.3441

> <Gold.Goldscore.Internal.Correction.Weighted>
-0.7650

> <Gold.Rescore>
     Score     S(PLP)   S(hbond)     S(cho)   S(metal)  DE(clash)   DE(tors)     intcor
     19.56     -15.75       1.99       0.00       0.00       0.91       0.62       ----

> <Gold.PLP.Fitness>
19.5629

> <Gold.PLP.PLP>
-15.7451

> <Gold.PLP.part.hbond>
-2.2032

> <Gold.PLP.part.metal>
0.0000

> <Gold.PLP.part.buried>
-2.8964

> <Gold.PLP.part.nonpolar>
-12.0295

> <Gold.PLP.part.repulsive>
0.9360

> <Gold.PLP.ligand.clash>
0.9147

> <Gold.PLP.ligand.torsion>
0.6217

> <Gold.PLP.Chemscore.Hbond>
1.9920

> <Gold.PLP.Chemscore.CHOScore>
0.0000

> <Gold.PLP.Chemscore.Metal>
0.0000

> <Gold.Chemscore.Hbonds>
donor molecule, donor type, donor heavy atom, donor atom, acceptor molecule, acceptor atom, score
      L1  H     8    22       P1  8092  0.62
      P1  H  6792  6835       L1    11  0.15
      P1  H  8084  8119       L1    17  0.56

> <Gold.PLP.Chemscore.Internal.Correction>
   9.000000E+99

