#       Name:                CT1002167954
#       Creating user name   hitesit
#       Creation time:       Sun Apr 16 22:58:08 2023


#       File generated by GOLD software.
#

@<TRIPOS>MOLECULE
CT1002167954|ligand_prepared|mol2|1|dock7
    29    30     1
SMALL
NO_CHARGES


@<TRIPOS>ATOM
      1 C1         190.4189 -12.4028  49.5835 C.3            1 RES1               0.0000
      2 C2         189.9467 -11.1266  50.3094 C.ar           1 RES1               0.0000
      3 C3         189.4802 -12.5922  48.3955 C.2            1 RES1               0.0000
      4 C4         191.8729 -12.1593  49.1948 C.2            1 RES1               0.0000
      5 C5         190.3654 -13.6760  50.4596 C.3            1 RES1               0.0000
      6 C6         189.9454 -11.0614  51.6995 C.ar           1 RES1               0.0000
      7 C7         189.5129 -10.0074  49.6038 C.ar           1 RES1               0.0000
      8 N8         189.9684 -12.3114  47.1535 N.am           1 RES1               0.0000
      9 O9         188.3173 -12.9446  48.5498 O.2            1 RES1               0.0000
     10 N10        192.1769 -12.0833  47.8608 N.am           1 RES1               0.0000
     11 O11        192.7555 -12.0161  50.0320 O.2            1 RES1               0.0000
     12 C12        190.5403 -14.9674  49.6760 C.3            1 RES1               0.0000
     13 C13        189.5283  -9.9179  52.3604 C.ar           1 RES1               0.0000
     14 C14        189.0961  -8.8649  50.2666 C.ar           1 RES1               0.0000
     15 C15        191.2856 -12.1176  46.8232 C.2            1 RES1               0.0000
     16 C16        189.1039  -8.8188  51.6445 C.ar           1 RES1               0.0000
     17 O17        191.6295 -11.9879  45.6518 O.2            1 RES1               0.0000
     18 H18        191.1537 -13.6149  51.2200 H              1 RES1               0.0000
     19 H19        189.3998 -13.7066  50.9795 H              1 RES1               0.0000
     20 H20        190.2736 -11.9173  52.2798 H              1 RES1               0.0000
     21 H21        189.4973 -10.0214  48.5193 H              1 RES1               0.0000
     22 H22        189.2915 -12.2386  46.4006 H              1 RES1               0.0000
     23 H23        193.1585 -11.9928  47.6188 H              1 RES1               0.0000
     24 H24        190.4946 -15.8295  50.3381 H              1 RES1               0.0000
     25 H25        189.7579 -15.0732  48.9273 H              1 RES1               0.0000
     26 H26        191.5014 -14.9820  49.1663 H              1 RES1               0.0000
     27 H27        189.5351  -9.8872  53.4449 H              1 RES1               0.0000
     28 H28        188.7623  -8.0024  49.6992 H              1 RES1               0.0000
     29 H29        188.7776  -7.9230  52.1624 H              1 RES1               0.0000
@<TRIPOS>BOND
    1    1    2 1     
    2    1    3 1     
    3    1    4 1     
    4    1    5 1     
    5    2    6 ar    
    6    2    7 ar    
    7    3    8 1     
    8    3    9 2     
    9    4   10 1     
   10    4   11 2     
   11    5   12 1     
   12    5   18 1     
   13    5   19 1     
   14    6   13 ar    
   15    6   20 1     
   16    7   14 ar    
   17    7   21 1     
   18    8   15 1     
   19    8   22 1     
   20   10   15 1     
   21   10   23 1     
   22   12   24 1     
   23   12   25 1     
   24   12   26 1     
   25   13   16 ar    
   26   13   27 1     
   27   14   16 ar    
   28   14   28 1     
   29   15   17 2     
   30   16   29 1     
@<TRIPOS>SUBSTRUCTURE
      1 RES1           1
@<TRIPOS>SET
DONOR_HYDROGENS      STATIC     ATOMS    <user>   **** ""
2 22 23
ATOM$RED        STATIC     ATOMS    COLORGROUP SYSTEM
2 22 23
@<TRIPOS>COMMENT
> <Gold.Version>
2022.3.0

> <Gold.Id.Protein>
unknown|4v3u_clean|pdb

> <Gold.Protein.RotatedTorsions>
[ 6601 6555 6556 6557 ] final  -70.76 input  119.23 | X-H torsion
[ 8042 8007 8008 8009 ] final   59.84 input   55.11 | X-H torsion
[ 8119 8084 8085 8086 ] final    5.82 input   97.66 | X-H torsion
[ 8180 8150 8151 8152 ] final   94.16 input   74.82 | X-H torsion
[ 8260 8218 8219 8220 ] final  173.27 input   76.36 | X-H torsion
[ 9557 9518 9517 9515 ] final  -68.36 input   59.97 | X-H torsion
[ 6681 6635 6636 6637 ] final -163.97 input  125.14 | X-H torsion
[ 8323 8295 8296 8297 ] final  -28.77 input   97.98 | X-H torsion
[ 10202 10167 10168 10169 ] final  -51.85 input   38.66 | X-H torsion
[ 7961 7920 7921 7922 ] final  -32.75 input   85.79 | X-H torsion
[ 6824 6784 6785 6786 ] final   73.42 input  126.65 | X-H torsion
[ 7900 7873 7874 7875 ] final  -58.25 input  103.19 | X-H torsion
[ 7904 7878 7877 7874 ] final -111.31 input   60.02 | X-H torsion
[ 27201 6558 6557 6556 ] final -151.02 input    0.00 | X-H torsion
[ 27203 7876 7875 7874 ] final -165.21 input   -0.00 | X-H torsion
[ 27206 8010 8009 8008 ] final  172.01 input    0.00 | X-H torsion
[ 27209 8087 8086 8085 ] final  -16.06 input    0.00 | X-H torsion
[ 27212 8153 8152 8151 ] final  141.52 input   -0.00 | X-H torsion
[ 27219 10084 10083 10082 ] final   59.31 input    0.00 | X-H torsion
[ 27222 10170 10169 10168 ] final  -64.82 input    0.00 | X-H torsion
[ 27225 7923 7922 7921 ] final  -19.79 input   -0.00 | X-H torsion
[ 27227 6365 6364 6363 ] final -136.85 input    0.00 | X-H torsion
[ 27230 7788 7787 7786 ] final -107.22 input    0.00 | X-H torsion
[ 27232 7715 7714 7713 ] final  -89.00 input    0.00 | X-H torsion

> <Gold.Protein.ActiveResidues>
 THR404  ILE407  TYR408  ALA410  LYS411  TRP414  GLN425  TRP426  SER427  LYS428 
 LEU429  GLN430  VAL431  PHE432  ASP433  TYR453  SER462  ALA463  ILE464 

> <Gold.Protein.RotatedAtoms>
  195.9224   -8.2134   37.7998 H   0  0  0  0  0  0  0  0  0  0  0  0  # atno 6601 bound_to 6555
  197.9765  -10.0429   40.2286 H   0  0  0  0  0  0  0  0  0  0  0  0  # atno 6681 bound_to 6635
  197.3850   -5.6382   42.1073 H   0  0  0  0  0  0  0  0  0  0  0  0  # atno 6824 bound_to 6784
  196.6711   -6.4038   49.7993 H   0  0  0  0  0  0  0  0  0  0  0  0  # atno 7900 bound_to 7873
  199.2791   -8.9240   51.5627 H   0  0  0  0  0  0  0  0  0  0  0  0  # atno 7904 bound_to 7878
  195.3274   -8.2290   49.4238 H   0  0  0  0  0  0  0  0  0  0  0  0  # atno 7961 bound_to 7920
  193.6263   -8.9612   47.8147 H   0  0  0  0  0  0  0  0  0  0  0  0  # atno 8042 bound_to 8007
  190.4095   -7.6441   45.9641 H   0  0  0  0  0  0  0  0  0  0  0  0  # atno 8119 bound_to 8084
  190.4765  -10.0804   43.0642 H   0  0  0  0  0  0  0  0  0  0  0  0  # atno 8180 bound_to 8150
  187.8833   -8.4919   41.0672 H   0  0  0  0  0  0  0  0  0  0  0  0  # atno 8260 bound_to 8218
  186.9711   -8.8001   37.1625 H   0  0  0  0  0  0  0  0  0  0  0  0  # atno 8323 bound_to 8295
  185.6166  -11.8278   48.7922 H   0  0  0  0  0  0  0  0  0  0  0  0  # atno 9557 bound_to 9518
  187.1609   -5.1453   43.5973 H   0  0  0  0  0  0  0  0  0  0  0  0  # atno 10202 bound_to 10167
  196.1548   -9.9421   37.6584 LP  0  0  0  0  0  0  0  0  0  0  0  0  # atno 27200 bound_to 6555
  197.5966   -7.1656   41.4820 LP  0  0  0  0  0  0  0  0  0  0  0  0  # atno 27201 bound_to 6558
  196.0584   -7.8687   41.8556 LP  0  0  0  0  0  0  0  0  0  0  0  0  # atno 27202 bound_to 6558
  194.7396  -10.3719   48.4786 LP  0  0  0  0  0  0  0  0  0  0  0  0  # atno 27203 bound_to 7876
  196.4331  -10.5064   48.1415 LP  0  0  0  0  0  0  0  0  0  0  0  0  # atno 27204 bound_to 7876
  192.6801   -8.3675   49.1612 LP  0  0  0  0  0  0  0  0  0  0  0  0  # atno 27205 bound_to 8007
  191.6781  -10.1084   45.0898 LP  0  0  0  0  0  0  0  0  0  0  0  0  # atno 27206 bound_to 8010
  193.1072   -9.3034   45.6461 LP  0  0  0  0  0  0  0  0  0  0  0  0  # atno 27207 bound_to 8010
  190.2700   -8.9413   47.1271 LP  0  0  0  0  0  0  0  0  0  0  0  0  # atno 27208 bound_to 8084
  188.3003   -7.1466   44.5138 LP  0  0  0  0  0  0  0  0  0  0  0  0  # atno 27209 bound_to 8087
  189.1017   -6.9413   42.9921 LP  0  0  0  0  0  0  0  0  0  0  0  0  # atno 27210 bound_to 8087
  189.2552   -8.9236   43.5378 LP  0  0  0  0  0  0  0  0  0  0  0  0  # atno 27211 bound_to 8150
  188.0223  -10.8654   40.1895 LP  0  0  0  0  0  0  0  0  0  0  0  0  # atno 27212 bound_to 8153
  189.7536  -10.9161   40.1779 LP  0  0  0  0  0  0  0  0  0  0  0  0  # atno 27213 bound_to 8153
  188.9219   -7.9007   39.7937 LP  0  0  0  0  0  0  0  0  0  0  0  0  # atno 27214 bound_to 8218
  186.5379  -10.7969   47.9338 LP  0  0  0  0  0  0  0  0  0  0  0  0  # atno 27215 bound_to 9518
  186.1368  -12.2516   47.3095 LP  0  0  0  0  0  0  0  0  0  0  0  0  # atno 27216 bound_to 9518
  197.6972   -8.5248   39.4073 LP  0  0  0  0  0  0  0  0  0  0  0  0  # atno 27217 bound_to 6635
  188.3653   -9.8142   37.4714 LP  0  0  0  0  0  0  0  0  0  0  0  0  # atno 27218 bound_to 8295
  187.2426   -7.5426   48.3577 LP  0  0  0  0  0  0  0  0  0  0  0  0  # atno 27219 bound_to 10084
  188.5935   -7.3412   47.2925 LP  0  0  0  0  0  0  0  0  0  0  0  0  # atno 27220 bound_to 10084
  188.8440   -4.9812   44.0454 LP  0  0  0  0  0  0  0  0  0  0  0  0  # atno 27221 bound_to 10167
  188.8483   -6.0950   40.7373 LP  0  0  0  0  0  0  0  0  0  0  0  0  # atno 27222 bound_to 10170
  187.1386   -6.3542   40.8360 LP  0  0  0  0  0  0  0  0  0  0  0  0  # atno 27223 bound_to 10170
  195.6169   -8.7758   51.0616 LP  0  0  0  0  0  0  0  0  0  0  0  0  # atno 27224 bound_to 7920
  191.5967   -7.7079   50.9697 LP  0  0  0  0  0  0  0  0  0  0  0  0  # atno 27225 bound_to 7923
  191.5025   -6.7845   49.5073 LP  0  0  0  0  0  0  0  0  0  0  0  0  # atno 27226 bound_to 7923
  198.5488  -10.3850   38.2709 LP  0  0  0  0  0  0  0  0  0  0  0  0  # atno 27227 bound_to 6365
  199.0981  -11.8992   38.9077 LP  0  0  0  0  0  0  0  0  0  0  0  0  # atno 27228 bound_to 6365
  195.9678   -4.7522   42.6238 LP  0  0  0  0  0  0  0  0  0  0  0  0  # atno 27229 bound_to 6784
  195.2893   -6.6315   48.3505 LP  0  0  0  0  0  0  0  0  0  0  0  0  # atno 27230 bound_to 7788
  196.6029   -5.8095   47.5768 LP  0  0  0  0  0  0  0  0  0  0  0  0  # atno 27231 bound_to 7788
  195.0827   -7.1332   51.4260 LP  0  0  0  0  0  0  0  0  0  0  0  0  # atno 27232 bound_to 7715
  194.0987   -5.7899   50.9493 LP  0  0  0  0  0  0  0  0  0  0  0  0  # atno 27233 bound_to 7715
  197.9341   -7.0161   50.8323 LP  0  0  0  0  0  0  0  0  0  0  0  0  # atno 27234 bound_to 7873
  198.4233  -10.3076   51.6043 LP  0  0  0  0  0  0  0  0  0  0  0  0  # atno 27235 bound_to 7878
  197.6543   -8.8673   51.6340 LP  0  0  0  0  0  0  0  0  0  0  0  0  # atno 27236 bound_to 7878

> <Gold.Score>
     Fitness  S(hb_ext) S(vdw_ext)  S(hb_int)    S(int)      intcor
     34.25       6.00      21.02       0.00      -0.65      -0.76

> <Gold.Goldscore.Fitness>
34.2460

> <Gold.Goldscore.Internal.Vdw>
-0.8031

> <Gold.Goldscore.Internal.Torsion>
-0.6128

> <Gold.Goldscore.External.Vdw>
21.0160

> <Gold.Goldscore.Internal.HBond>
0.0000

> <Gold.Goldscore.External.HBond>
6.0000

> <Gold.Goldscore.Internal.Correction>
-0.7650

> <Gold.Goldscore.Hbonds>
donor molecule, donor type, donor heavy atom, donor atom, acceptor molecule, acceptor atom, score
      L1  H     8    22       P1  8092  1.00

> <Gold.Goldscore.Internal.Vdw.Weighted>
-0.8031

> <Gold.Goldscore.Internal.Torsion.Weighted>
-0.6128

> <Gold.Goldscore.External.Vdw.Weighted>
28.8969

> <Gold.Goldscore.Internal.HBond.Weighted>
0.0000

> <Gold.Goldscore.External.HBond.Weighted>
6.0000

> <Gold.Goldscore.Internal.Correction.Weighted>
-0.7650

> <Gold.Rescore>
     Score     S(PLP)   S(hbond)     S(cho)   S(metal)  DE(clash)   DE(tors)     intcor
     32.21     -30.64       1.00       0.00       0.00       0.00       0.71       ----

> <Gold.PLP.Fitness>
32.2126

> <Gold.PLP.PLP>
-30.6416

> <Gold.PLP.part.hbond>
-2.0000

> <Gold.PLP.part.metal>
0.0000

> <Gold.PLP.part.buried>
-5.0607

> <Gold.PLP.part.nonpolar>
-24.2597

> <Gold.PLP.part.repulsive>
0.3121

> <Gold.PLP.ligand.clash>
0.0000

> <Gold.PLP.ligand.torsion>
0.7145

> <Gold.PLP.Chemscore.Hbond>
1.0000

> <Gold.PLP.Chemscore.CHOScore>
0.0000

> <Gold.PLP.Chemscore.Metal>
0.0000

> <Gold.Chemscore.Hbonds>
donor molecule, donor type, donor heavy atom, donor atom, acceptor molecule, acceptor atom, score
      L1  H     8    22       P1  8092  1.00

> <Gold.PLP.Chemscore.Internal.Correction>
   9.000000E+99

