#       Name:                CT1002167954
#       Creating user name   hitesit
#       Creation time:       Sun Apr 16 22:58:06 2023


#       File generated by GOLD software.
#

@<TRIPOS>MOLECULE
CT1002167954|ligand_prepared|mol2|1|dock2
    29    30     1
SMALL
NO_CHARGES


@<TRIPOS>ATOM
      1 C1         191.3955 -13.8452  44.6624 C.3            1 RES1               0.0000
      2 C2         190.5551 -13.4418  45.8911 C.ar           1 RES1               0.0000
      3 C3         190.6115 -13.3842  43.4371 C.2            1 RES1               0.0000
      4 C4         192.7486 -13.1626  44.8282 C.2            1 RES1               0.0000
      5 C5         191.6397 -15.3678  44.5450 C.3            1 RES1               0.0000
      6 C6         190.7816 -12.2305  46.5378 C.ar           1 RES1               0.0000
      7 C7         189.5499 -14.2678  46.3871 C.ar           1 RES1               0.0000
      8 N8         191.0745 -12.2915  42.7653 N.am           1 RES1               0.0000
      9 O9         189.5809 -13.9471  43.0890 O.2            1 RES1               0.0000
     10 N10        193.0951 -12.1951  43.9217 N.am           1 RES1               0.0000
     11 O11        193.5108 -13.4420  45.7455 O.2            1 RES1               0.0000
     12 C12        192.7074 -15.7409  43.5287 C.3            1 RES1               0.0000
     13 C13        190.0285 -11.8570  47.6386 C.ar           1 RES1               0.0000
     14 C14        188.7982 -13.8925  47.4882 C.ar           1 RES1               0.0000
     15 C15        192.3063 -11.7071  42.9158 C.2            1 RES1               0.0000
     16 C16        189.0362 -12.6874  48.1143 C.ar           1 RES1               0.0000
     17 O17        192.6676 -10.7974  42.1748 O.2            1 RES1               0.0000
     18 H18        191.9369 -15.7545  45.5276 H              1 RES1               0.0000
     19 H19        190.6984 -15.8557  44.2634 H              1 RES1               0.0000
     20 H20        191.5599 -11.5651  46.1793 H              1 RES1               0.0000
     21 H21        189.3458 -15.2209  45.9112 H              1 RES1               0.0000
     22 H22        190.4466 -11.8697  42.0883 H              1 RES1               0.0000
     23 H23        194.0275 -11.8025  44.0043 H              1 RES1               0.0000
     24 H24        192.8390 -16.8201  43.4861 H              1 RES1               0.0000
     25 H25        192.4323 -15.3936  42.5350 H              1 RES1               0.0000
     26 H26        193.6635 -15.2930  43.7917 H              1 RES1               0.0000
     27 H27        190.2207 -10.9082  48.1286 H              1 RES1               0.0000
     28 H28        188.0185 -14.5494  47.8596 H              1 RES1               0.0000
     29 H29        188.4461 -12.3944  48.9764 H              1 RES1               0.0000
@<TRIPOS>BOND
    1    1    2 1     
    2    1    3 1     
    3    1    4 1     
    4    1    5 1     
    5    2    6 ar    
    6    2    7 ar    
    7    3    8 1     
    8    3    9 2     
    9    4   10 1     
   10    4   11 2     
   11    5   12 1     
   12    5   18 1     
   13    5   19 1     
   14    6   13 ar    
   15    6   20 1     
   16    7   14 ar    
   17    7   21 1     
   18    8   15 1     
   19    8   22 1     
   20   10   15 1     
   21   10   23 1     
   22   12   24 1     
   23   12   25 1     
   24   12   26 1     
   25   13   16 ar    
   26   13   27 1     
   27   14   16 ar    
   28   14   28 1     
   29   15   17 2     
   30   16   29 1     
@<TRIPOS>SUBSTRUCTURE
      1 RES1           1
@<TRIPOS>SET
DONOR_HYDROGENS      STATIC     ATOMS    <user>   **** ""
2 22 23
ATOM$RED        STATIC     ATOMS    COLORGROUP SYSTEM
2 22 23
@<TRIPOS>COMMENT
> <Gold.Version>
2022.3.0

> <Gold.Id.Protein>
unknown|4v3u_clean|pdb

> <Gold.Protein.RotatedTorsions>
[ 6601 6555 6556 6557 ] final -179.20 input  119.23 | X-H torsion
[ 8042 8007 8008 8009 ] final   31.21 input   55.11 | X-H torsion
[ 8119 8084 8085 8086 ] final -162.72 input   97.66 | X-H torsion
[ 8180 8150 8151 8152 ] final   11.48 input   74.82 | X-H torsion
[ 8260 8218 8219 8220 ] final  -39.23 input   76.36 | X-H torsion
[ 9557 9518 9517 9515 ] final   41.27 input   59.97 | X-H torsion
[ 6681 6635 6636 6637 ] final -165.93 input  125.14 | X-H torsion
[ 8323 8295 8296 8297 ] final   30.44 input   97.98 | X-H torsion
[ 10202 10167 10168 10169 ] final -152.26 input   38.66 | X-H torsion
[ 7961 7920 7921 7922 ] final   52.53 input   85.79 | X-H torsion
[ 6824 6784 6785 6786 ] final   60.75 input  126.65 | X-H torsion
[ 7900 7873 7874 7875 ] final   13.05 input  103.19 | X-H torsion
[ 7904 7878 7877 7874 ] final  128.43 input   60.02 | X-H torsion
[ 27201 6558 6557 6556 ] final  -28.25 input    0.00 | X-H torsion
[ 27203 7876 7875 7874 ] final -157.50 input   -0.00 | X-H torsion
[ 27206 8010 8009 8008 ] final -176.81 input    0.00 | X-H torsion
[ 27209 8087 8086 8085 ] final  164.67 input    0.00 | X-H torsion
[ 27212 8153 8152 8151 ] final  -10.25 input   -0.00 | X-H torsion
[ 27219 10084 10083 10082 ] final  -21.26 input    0.00 | X-H torsion
[ 27222 10170 10169 10168 ] final  166.85 input    0.00 | X-H torsion
[ 27225 7923 7922 7921 ] final    2.61 input   -0.00 | X-H torsion
[ 27227 6365 6364 6363 ] final  159.80 input    0.00 | X-H torsion
[ 27230 7788 7787 7786 ] final -114.57 input    0.00 | X-H torsion
[ 27232 7715 7714 7713 ] final   31.18 input    0.00 | X-H torsion

> <Gold.Protein.ActiveResidues>
 THR404  ILE407  TYR408  ALA410  LYS411  TRP414  GLN425  TRP426  SER427  LYS428 
 LEU429  GLN430  VAL431  PHE432  ASP433  TYR453  SER462  ALA463  ILE464 

> <Gold.Protein.RotatedAtoms>
  195.2459   -9.4733   37.6177 H   0  0  0  0  0  0  0  0  0  0  0  0  # atno 6601 bound_to 6555
  197.9923  -10.0524   40.2047 H   0  0  0  0  0  0  0  0  0  0  0  0  # atno 6681 bound_to 6635
  197.4638   -5.4596   42.0904 H   0  0  0  0  0  0  0  0  0  0  0  0  # atno 6824 bound_to 6784
  196.5316   -6.8853   50.6863 H   0  0  0  0  0  0  0  0  0  0  0  0  # atno 7900 bound_to 7873
  198.4192  -10.3010   51.6023 H   0  0  0  0  0  0  0  0  0  0  0  0  # atno 7904 bound_to 7878
  195.1754   -7.7043   50.4991 H   0  0  0  0  0  0  0  0  0  0  0  0  # atno 7961 bound_to 7920
  193.3020   -9.2542   47.8570 H   0  0  0  0  0  0  0  0  0  0  0  0  # atno 8042 bound_to 8007
  190.4187   -9.0147   47.0683 H   0  0  0  0  0  0  0  0  0  0  0  0  # atno 8119 bound_to 8084
  189.3128  -10.1036   42.9668 H   0  0  0  0  0  0  0  0  0  0  0  0  # atno 8180 bound_to 8150
  189.0568   -8.3670   39.8523 H   0  0  0  0  0  0  0  0  0  0  0  0  # atno 8260 bound_to 8218
  186.9361   -9.6585   36.9689 H   0  0  0  0  0  0  0  0  0  0  0  0  # atno 8323 bound_to 8295
  186.0389  -12.3429   47.4141 H   0  0  0  0  0  0  0  0  0  0  0  0  # atno 9557 bound_to 9518
  187.9692   -4.3599   44.3665 H   0  0  0  0  0  0  0  0  0  0  0  0  # atno 10202 bound_to 10167
  196.8107   -8.7207   37.8348 LP  0  0  0  0  0  0  0  0  0  0  0  0  # atno 27200 bound_to 6555
  196.0895   -7.2530   41.3006 LP  0  0  0  0  0  0  0  0  0  0  0  0  # atno 27201 bound_to 6558
  197.5655   -7.7813   42.0370 LP  0  0  0  0  0  0  0  0  0  0  0  0  # atno 27202 bound_to 6558
  194.7358  -10.2967   48.3897 LP  0  0  0  0  0  0  0  0  0  0  0  0  # atno 27203 bound_to 7876
  196.4369  -10.5816   48.2304 LP  0  0  0  0  0  0  0  0  0  0  0  0  # atno 27204 bound_to 7876
  192.9948   -8.0832   49.1200 LP  0  0  0  0  0  0  0  0  0  0  0  0  # atno 27205 bound_to 8007
  191.6845   -9.9969   44.9633 LP  0  0  0  0  0  0  0  0  0  0  0  0  # atno 27206 bound_to 8010
  193.1009   -9.4149   45.7726 LP  0  0  0  0  0  0  0  0  0  0  0  0  # atno 27207 bound_to 8010
  190.2611   -7.6034   46.0492 LP  0  0  0  0  0  0  0  0  0  0  0  0  # atno 27208 bound_to 8084
  189.0929   -6.9455   42.9870 LP  0  0  0  0  0  0  0  0  0  0  0  0  # atno 27209 bound_to 8087
  188.3092   -7.1425   44.5190 LP  0  0  0  0  0  0  0  0  0  0  0  0  # atno 27210 bound_to 8087
  190.3917   -8.9009   43.6328 LP  0  0  0  0  0  0  0  0  0  0  0  0  # atno 27211 bound_to 8150
  189.6506  -11.0059   40.5775 LP  0  0  0  0  0  0  0  0  0  0  0  0  # atno 27212 bound_to 8153
  188.1253  -10.7756   39.7899 LP  0  0  0  0  0  0  0  0  0  0  0  0  # atno 27213 bound_to 8153
  187.7720   -8.0231   40.9842 LP  0  0  0  0  0  0  0  0  0  0  0  0  # atno 27214 bound_to 8218
  185.6647  -11.6757   48.8505 LP  0  0  0  0  0  0  0  0  0  0  0  0  # atno 27215 bound_to 9518
  186.5849  -10.8542   47.7805 LP  0  0  0  0  0  0  0  0  0  0  0  0  # atno 27216 bound_to 9518
  197.6819   -8.5155   39.4306 LP  0  0  0  0  0  0  0  0  0  0  0  0  # atno 27217 bound_to 6635
  188.3990   -8.9859   37.6582 LP  0  0  0  0  0  0  0  0  0  0  0  0  # atno 27218 bound_to 8295
  188.3398   -7.5037   48.5790 LP  0  0  0  0  0  0  0  0  0  0  0  0  # atno 27219 bound_to 10084
  187.4963   -7.3801   47.0713 LP  0  0  0  0  0  0  0  0  0  0  0  0  # atno 27220 bound_to 10084
  188.0598   -5.7431   43.2992 LP  0  0  0  0  0  0  0  0  0  0  0  0  # atno 27221 bound_to 10167
  187.4090   -6.2026   40.1479 LP  0  0  0  0  0  0  0  0  0  0  0  0  # atno 27222 bound_to 10170
  188.5779   -6.2466   41.4254 LP  0  0  0  0  0  0  0  0  0  0  0  0  # atno 27223 bound_to 10170
  195.7638   -9.2829   50.0225 LP  0  0  0  0  0  0  0  0  0  0  0  0  # atno 27224 bound_to 7920
  191.8390   -7.4801   51.0205 LP  0  0  0  0  0  0  0  0  0  0  0  0  # atno 27225 bound_to 7923
  191.2602   -7.0123   49.4565 LP  0  0  0  0  0  0  0  0  0  0  0  0  # atno 27226 bound_to 7923
  199.4283  -10.6163   38.2612 LP  0  0  0  0  0  0  0  0  0  0  0  0  # atno 27227 bound_to 6365
  198.2186  -11.6680   38.9174 LP  0  0  0  0  0  0  0  0  0  0  0  0  # atno 27228 bound_to 6365
  195.8913   -4.9256   42.6402 LP  0  0  0  0  0  0  0  0  0  0  0  0  # atno 27229 bound_to 6784
  195.3445   -6.7254   48.3287 LP  0  0  0  0  0  0  0  0  0  0  0  0  # atno 27230 bound_to 7788
  196.5477   -5.7157   47.5987 LP  0  0  0  0  0  0  0  0  0  0  0  0  # atno 27231 bound_to 7788
  193.8966   -6.2423   51.6567 LP  0  0  0  0  0  0  0  0  0  0  0  0  # atno 27232 bound_to 7715
  195.2849   -6.6808   50.7185 LP  0  0  0  0  0  0  0  0  0  0  0  0  # atno 27233 bound_to 7715
  198.0728   -6.5376   49.9509 LP  0  0  0  0  0  0  0  0  0  0  0  0  # atno 27234 bound_to 7873
  197.6566   -8.8637   51.6339 LP  0  0  0  0  0  0  0  0  0  0  0  0  # atno 27235 bound_to 7878
  199.2869   -8.9247   51.5646 LP  0  0  0  0  0  0  0  0  0  0  0  0  # atno 27236 bound_to 7878

> <Gold.Score>
     Fitness  S(hb_ext) S(vdw_ext)  S(hb_int)    S(int)      intcor
     31.16       6.73      18.26       0.00      -0.68      -0.76

> <Gold.Goldscore.Fitness>
31.1630

> <Gold.Goldscore.Internal.Vdw>
-0.8269

> <Gold.Goldscore.Internal.Torsion>
-0.6175

> <Gold.Goldscore.External.Vdw>
18.2618

> <Gold.Goldscore.Internal.HBond>
0.0000

> <Gold.Goldscore.External.HBond>
6.7325

> <Gold.Goldscore.Internal.Correction>
-0.7650

> <Gold.Goldscore.Hbonds>
donor molecule, donor type, donor heavy atom, donor atom, acceptor molecule, acceptor atom, score
      P1  H  6792  6835       L1    11  0.96
      P1  H  8091  8125       L1     9  0.01
      L1  H     8    22       P1  8153  0.48

> <Gold.Goldscore.Internal.Vdw.Weighted>
-0.8269

> <Gold.Goldscore.Internal.Torsion.Weighted>
-0.6175

> <Gold.Goldscore.External.Vdw.Weighted>
25.1100

> <Gold.Goldscore.Internal.HBond.Weighted>
0.0000

> <Gold.Goldscore.External.HBond.Weighted>
6.7325

> <Gold.Goldscore.Internal.Correction.Weighted>
-0.7650

> <Gold.Rescore>
     Score     S(PLP)   S(hbond)     S(cho)   S(metal)  DE(clash)   DE(tors)     intcor
      4.86      -6.62       0.00       0.00       0.00       0.00       0.88       ----

> <Gold.PLP.Fitness>
4.8619

> <Gold.PLP.PLP>
-6.6209

> <Gold.PLP.part.hbond>
-0.5122

> <Gold.PLP.part.metal>
0.0000

> <Gold.PLP.part.buried>
-2.3087

> <Gold.PLP.part.nonpolar>
-10.1691

> <Gold.PLP.part.repulsive>
6.4607

> <Gold.PLP.ligand.clash>
0.0000

> <Gold.PLP.ligand.torsion>
0.8795

> <Gold.PLP.Chemscore.Hbond>
0.0000

> <Gold.PLP.Chemscore.CHOScore>
0.0000

> <Gold.PLP.Chemscore.Metal>
0.0000

> <Gold.Chemscore.Hbonds>
donor molecule, donor type, donor heavy atom, donor atom, acceptor molecule, acceptor atom, score
      P1  H  6792  6835       L1    11  0.41
      P1  H  8091  8125       L1     9  0.59

> <Gold.PLP.Chemscore.Internal.Correction>
   9.000000E+99

