#       Name:                CT1002167954
#       Creating user name   hitesit
#       Creation time:       Sun Apr 16 22:58:06 2023


#       File generated by GOLD software.
#

@<TRIPOS>MOLECULE
CT1002167954|ligand_prepared|mol2|1|dock3
    29    30     1
SMALL
NO_CHARGES


@<TRIPOS>ATOM
      1 C1         191.4698 -13.8244  44.6331 C.3            1 RES1               0.0000
      2 C2         190.6661 -13.4324  45.8897 C.ar           1 RES1               0.0000
      3 C3         190.6754 -13.3066  43.4376 C.2            1 RES1               0.0000
      4 C4         192.8453 -13.1854  44.7899 C.2            1 RES1               0.0000
      5 C5         191.6674 -15.3493  44.4683 C.3            1 RES1               0.0000
      6 C6         190.9435 -12.2492  46.5678 C.ar           1 RES1               0.0000
      7 C7         189.6443 -14.2410  46.3805 C.ar           1 RES1               0.0000
      8 N8         191.1564 -12.2087  42.7871 N.am           1 RES1               0.0000
      9 O9         189.6222 -13.8298  43.0953 O.2            1 RES1               0.0000
     10 N10        193.2016 -12.2028  43.9038 N.am           1 RES1               0.0000
     11 O11        193.6171 -13.5124  45.6831 O.2            1 RES1               0.0000
     12 C12        192.6476 -15.7252  43.3682 C.3            1 RES1               0.0000
     13 C13        190.2236 -11.8859  47.6939 C.ar           1 RES1               0.0000
     14 C14        188.9258 -13.8759  47.5070 C.ar           1 RES1               0.0000
     15 C15        192.4075 -11.6641  42.9284 C.2            1 RES1               0.0000
     16 C16        189.2142 -12.6987  48.1640 C.ar           1 RES1               0.0000
     17 O17        192.7802 -10.7444  42.2057 O.2            1 RES1               0.0000
     18 H18        192.0270 -15.7635  45.4183 H              1 RES1               0.0000
     19 H19        190.6962 -15.8094  44.2481 H              1 RES1               0.0000
     20 H20        191.7359 -11.5981  46.2141 H              1 RES1               0.0000
     21 H21        189.4008 -15.1722  45.8803 H              1 RES1               0.0000
     22 H22        190.5278 -11.7502  42.1353 H              1 RES1               0.0000
     23 H23        194.1464 -11.8394  43.9780 H              1 RES1               0.0000
     24 H24        192.7493 -16.8059  43.2950 H              1 RES1               0.0000
     25 H25        192.3083 -15.3507  42.4047 H              1 RES1               0.0000
     26 H26        193.6312 -15.3050  43.5679 H              1 RES1               0.0000
     27 H27        190.4554 -10.9591  48.2082 H              1 RES1               0.0000
     28 H28        188.1326 -14.5190  47.8737 H              1 RES1               0.0000
     29 H29        188.6501 -12.4137  49.0460 H              1 RES1               0.0000
@<TRIPOS>BOND
    1    1    2 1     
    2    1    3 1     
    3    1    4 1     
    4    1    5 1     
    5    2    6 ar    
    6    2    7 ar    
    7    3    8 1     
    8    3    9 2     
    9    4   10 1     
   10    4   11 2     
   11    5   12 1     
   12    5   18 1     
   13    5   19 1     
   14    6   13 ar    
   15    6   20 1     
   16    7   14 ar    
   17    7   21 1     
   18    8   15 1     
   19    8   22 1     
   20   10   15 1     
   21   10   23 1     
   22   12   24 1     
   23   12   25 1     
   24   12   26 1     
   25   13   16 ar    
   26   13   27 1     
   27   14   16 ar    
   28   14   28 1     
   29   15   17 2     
   30   16   29 1     
@<TRIPOS>SUBSTRUCTURE
      1 RES1           1
@<TRIPOS>SET
DONOR_HYDROGENS      STATIC     ATOMS    <user>   **** ""
2 22 23
ATOM$RED        STATIC     ATOMS    COLORGROUP SYSTEM
2 22 23
@<TRIPOS>COMMENT
> <Gold.Version>
2022.3.0

> <Gold.Id.Protein>
unknown|4v3u_clean|pdb

> <Gold.Protein.RotatedTorsions>
[ 6601 6555 6556 6557 ] final   77.25 input  119.23 | X-H torsion
[ 8042 8007 8008 8009 ] final  -13.86 input   55.11 | X-H torsion
[ 8119 8084 8085 8086 ] final  -52.39 input   97.66 | X-H torsion
[ 8180 8150 8151 8152 ] final  -59.04 input   74.82 | X-H torsion
[ 8260 8218 8219 8220 ] final   39.62 input   76.36 | X-H torsion
[ 9557 9518 9517 9515 ] final   -8.87 input   59.97 | X-H torsion
[ 6681 6635 6636 6637 ] final  122.32 input  125.14 | X-H torsion
[ 8323 8295 8296 8297 ] final   -4.70 input   97.98 | X-H torsion
[ 10202 10167 10168 10169 ] final  158.21 input   38.66 | X-H torsion
[ 7961 7920 7921 7922 ] final  137.29 input   85.79 | X-H torsion
[ 6824 6784 6785 6786 ] final    2.95 input  126.65 | X-H torsion
[ 7900 7873 7874 7875 ] final  125.62 input  103.19 | X-H torsion
[ 7904 7878 7877 7874 ] final  142.97 input   60.02 | X-H torsion
[ 27201 6558 6557 6556 ] final  178.38 input    0.00 | X-H torsion
[ 27203 7876 7875 7874 ] final  153.24 input   -0.00 | X-H torsion
[ 27206 8010 8009 8008 ] final  -59.21 input    0.00 | X-H torsion
[ 27209 8087 8086 8085 ] final  -11.96 input    0.00 | X-H torsion
[ 27212 8153 8152 8151 ] final  -56.11 input   -0.00 | X-H torsion
[ 27219 10084 10083 10082 ] final  148.46 input    0.00 | X-H torsion
[ 27222 10170 10169 10168 ] final -165.19 input    0.00 | X-H torsion
[ 27225 7923 7922 7921 ] final  -20.45 input   -0.00 | X-H torsion
[ 27227 6365 6364 6363 ] final  -96.37 input    0.00 | X-H torsion
[ 27230 7788 7787 7786 ] final  -52.83 input    0.00 | X-H torsion
[ 27232 7715 7714 7713 ] final -157.68 input    0.00 | X-H torsion

> <Gold.Protein.ActiveResidues>
 THR404  ILE407  TYR408  ALA410  LYS411  TRP414  GLN425  TRP426  SER427  LYS428 
 LEU429  GLN430  VAL431  PHE432  ASP433  TYR453  SER462  ALA463  ILE464 

> <Gold.Protein.RotatedAtoms>
  196.6027   -9.7791   37.7378 H   0  0  0  0  0  0  0  0  0  0  0  0  # atno 6601 bound_to 6555
  198.3245   -9.7671   39.2631 H   0  0  0  0  0  0  0  0  0  0  0  0  # atno 6681 bound_to 6635
  197.3214   -4.6190   42.1858 H   0  0  0  0  0  0  0  0  0  0  0  0  # atno 6824 bound_to 6784
  197.9777   -6.9791   50.8065 H   0  0  0  0  0  0  0  0  0  0  0  0  # atno 7900 bound_to 7873
  198.6550  -10.2798   51.5922 H   0  0  0  0  0  0  0  0  0  0  0  0  # atno 7904 bound_to 7878
  195.5509   -8.6526   51.1318 H   0  0  0  0  0  0  0  0  0  0  0  0  # atno 7961 bound_to 7920
  192.7469   -9.4031   48.2212 H   0  0  0  0  0  0  0  0  0  0  0  0  # atno 8042 bound_to 8007
  191.0259   -8.2434   45.9985 H   0  0  0  0  0  0  0  0  0  0  0  0  # atno 8119 bound_to 8084
  189.0235   -9.2134   43.3742 H   0  0  0  0  0  0  0  0  0  0  0  0  # atno 8180 bound_to 8150
  188.4896   -7.4149   40.0170 H   0  0  0  0  0  0  0  0  0  0  0  0  # atno 8260 bound_to 8218
  186.8511   -9.1333   37.0494 H   0  0  0  0  0  0  0  0  0  0  0  0  # atno 8323 bound_to 8295
  185.6539  -12.4468   48.1002 H   0  0  0  0  0  0  0  0  0  0  0  0  # atno 9557 bound_to 9518
  188.6541   -4.6333   44.2681 H   0  0  0  0  0  0  0  0  0  0  0  0  # atno 10202 bound_to 10167
  195.4954   -8.4242   37.7185 LP  0  0  0  0  0  0  0  0  0  0  0  0  # atno 27200 bound_to 6555
  197.6843   -7.4897   41.7921 LP  0  0  0  0  0  0  0  0  0  0  0  0  # atno 27201 bound_to 6558
  195.9707   -7.5447   41.5455 LP  0  0  0  0  0  0  0  0  0  0  0  0  # atno 27202 bound_to 6558
  195.0089  -10.7633   48.8681 LP  0  0  0  0  0  0  0  0  0  0  0  0  # atno 27203 bound_to 7876
  196.1638  -10.1149   47.7520 LP  0  0  0  0  0  0  0  0  0  0  0  0  # atno 27204 bound_to 7876
  193.5335   -7.9387   48.7666 LP  0  0  0  0  0  0  0  0  0  0  0  0  # atno 27205 bound_to 8007
  192.8113   -9.0363   45.0124 LP  0  0  0  0  0  0  0  0  0  0  0  0  # atno 27206 bound_to 8010
  191.9740  -10.3754   45.7235 LP  0  0  0  0  0  0  0  0  0  0  0  0  # atno 27207 bound_to 8010
  189.6683   -8.3563   47.0935 LP  0  0  0  0  0  0  0  0  0  0  0  0  # atno 27208 bound_to 8084
  188.3508   -7.1232   44.5410 LP  0  0  0  0  0  0  0  0  0  0  0  0  # atno 27209 bound_to 8087
  189.0512   -6.9647   42.9649 LP  0  0  0  0  0  0  0  0  0  0  0  0  # atno 27210 bound_to 8087
  190.6741   -9.7703   43.2350 LP  0  0  0  0  0  0  0  0  0  0  0  0  # atno 27211 bound_to 8150
  189.7130  -10.8555   39.9227 LP  0  0  0  0  0  0  0  0  0  0  0  0  # atno 27212 bound_to 8153
  188.0630  -10.9260   40.4447 LP  0  0  0  0  0  0  0  0  0  0  0  0  # atno 27213 bound_to 8153
  188.3278   -8.9559   40.8227 LP  0  0  0  0  0  0  0  0  0  0  0  0  # atno 27214 bound_to 8218
  186.0612  -10.9955   48.7138 LP  0  0  0  0  0  0  0  0  0  0  0  0  # atno 27215 bound_to 9518
  186.5760  -11.4297   47.2262 LP  0  0  0  0  0  0  0  0  0  0  0  0  # atno 27216 bound_to 9518
  197.3584   -8.7933   40.3474 LP  0  0  0  0  0  0  0  0  0  0  0  0  # atno 27217 bound_to 6635
  188.4810   -9.4927   37.5805 LP  0  0  0  0  0  0  0  0  0  0  0  0  # atno 27218 bound_to 8295
  187.3684   -7.3975   47.1573 LP  0  0  0  0  0  0  0  0  0  0  0  0  # atno 27219 bound_to 10084
  188.4677   -7.4863   48.4929 LP  0  0  0  0  0  0  0  0  0  0  0  0  # atno 27220 bound_to 10084
  187.3954   -5.4778   43.3947 LP  0  0  0  0  0  0  0  0  0  0  0  0  # atno 27221 bound_to 10167
  187.7716   -6.1195   39.9561 LP  0  0  0  0  0  0  0  0  0  0  0  0  # atno 27222 bound_to 10170
  188.2153   -6.3296   41.6172 LP  0  0  0  0  0  0  0  0  0  0  0  0  # atno 27223 bound_to 10170
  195.4009   -8.3664   49.4110 LP  0  0  0  0  0  0  0  0  0  0  0  0  # atno 27224 bound_to 7920
  191.5892   -7.7137   50.9664 LP  0  0  0  0  0  0  0  0  0  0  0  0  # atno 27225 bound_to 7923
  191.5099   -6.7787   49.5105 LP  0  0  0  0  0  0  0  0  0  0  0  0  # atno 27226 bound_to 7923
  198.0857  -10.7015   38.4817 LP  0  0  0  0  0  0  0  0  0  0  0  0  # atno 27227 bound_to 6365
  199.5611  -11.5828   38.6969 LP  0  0  0  0  0  0  0  0  0  0  0  0  # atno 27228 bound_to 6365
  196.0296   -5.7418   42.5476 LP  0  0  0  0  0  0  0  0  0  0  0  0  # atno 27229 bound_to 6784
  195.2471   -5.8423   48.3076 LP  0  0  0  0  0  0  0  0  0  0  0  0  # atno 27230 bound_to 7788
  196.6451   -6.5988   47.6198 LP  0  0  0  0  0  0  0  0  0  0  0  0  # atno 27231 bound_to 7788
  195.2511   -6.5781   50.6396 LP  0  0  0  0  0  0  0  0  0  0  0  0  # atno 27232 bound_to 7715
  193.9303   -6.3450   51.7356 LP  0  0  0  0  0  0  0  0  0  0  0  0  # atno 27233 bound_to 7715
  196.6358   -6.4444   49.8315 LP  0  0  0  0  0  0  0  0  0  0  0  0  # atno 27234 bound_to 7873
  197.5563   -9.0801   51.6387 LP  0  0  0  0  0  0  0  0  0  0  0  0  # atno 27235 bound_to 7878
  199.1498   -8.7296   51.5701 LP  0  0  0  0  0  0  0  0  0  0  0  0  # atno 27236 bound_to 7878

> <Gold.Score>
     Fitness  S(hb_ext) S(vdw_ext)  S(hb_int)    S(int)      intcor
     29.62       6.16      17.57       0.00      -0.70      -0.76

> <Gold.Goldscore.Fitness>
29.6236

> <Gold.Goldscore.Internal.Vdw>
-0.9559

> <Gold.Goldscore.Internal.Torsion>
-0.5113

> <Gold.Goldscore.External.Vdw>
17.5720

> <Gold.Goldscore.Internal.HBond>
0.0000

> <Gold.Goldscore.External.HBond>
6.1644

> <Gold.Goldscore.Internal.Correction>
-0.7650

> <Gold.Goldscore.Hbonds>
donor molecule, donor type, donor heavy atom, donor atom, acceptor molecule, acceptor atom, score
      P1  H  6792  6835       L1    11  1.00
      L1  H     8    22       P1  8153  0.08

> <Gold.Goldscore.Internal.Vdw.Weighted>
-0.9559

> <Gold.Goldscore.Internal.Torsion.Weighted>
-0.5113

> <Gold.Goldscore.External.Vdw.Weighted>
24.1615

> <Gold.Goldscore.Internal.HBond.Weighted>
0.0000

> <Gold.Goldscore.External.HBond.Weighted>
6.1644

> <Gold.Goldscore.Internal.Correction.Weighted>
-0.7650

> <Gold.Rescore>
     Score     S(PLP)   S(hbond)     S(cho)   S(metal)  DE(clash)   DE(tors)     intcor
     22.38     -22.28       0.77       0.00       0.00       0.00       1.10       ----

> <Gold.PLP.Fitness>
22.3805

> <Gold.PLP.PLP>
-22.2757

> <Gold.PLP.part.hbond>
-3.0487

> <Gold.PLP.part.metal>
0.0000

> <Gold.PLP.part.buried>
-5.2141

> <Gold.PLP.part.nonpolar>
-15.1744

> <Gold.PLP.part.repulsive>
0.5210

> <Gold.PLP.ligand.clash>
0.0000

> <Gold.PLP.ligand.torsion>
1.0996

> <Gold.PLP.Chemscore.Hbond>
0.7680

> <Gold.PLP.Chemscore.CHOScore>
0.0000

> <Gold.PLP.Chemscore.Metal>
0.0000

> <Gold.Chemscore.Hbonds>
donor molecule, donor type, donor heavy atom, donor atom, acceptor molecule, acceptor atom, score
      P1  H  6792  6835       L1    11  0.46
      P1  H  8091  8125       L1     9  0.51

> <Gold.PLP.Chemscore.Internal.Correction>
   9.000000E+99

