#       Name:                CT1002167954
#       Creating user name   hitesit
#       Creation time:       Sun Apr 16 22:58:05 2023


#       File generated by GOLD software.
#

@<TRIPOS>MOLECULE
CT1002167954|ligand_prepared|mol2|1|dock1
    29    30     1
SMALL
NO_CHARGES


@<TRIPOS>ATOM
      1 C1         189.8601 -12.0607  49.7829 C.3            1 RES1               0.0000
      2 C2         191.2250 -12.7781  49.7484 C.ar           1 RES1               0.0000
      3 C3         189.4686 -11.8144  48.3288 C.2            1 RES1               0.0000
      4 C4         188.9103 -12.9866  50.5346 C.2            1 RES1               0.0000
      5 C5         189.8869 -10.7021  50.5212 C.3            1 RES1               0.0000
      6 C6         192.1858 -12.5204  50.7216 C.ar           1 RES1               0.0000
      7 C7         191.5362 -13.7005  48.7529 C.ar           1 RES1               0.0000
      8 N8         188.4800 -12.5912  47.8004 N.am           1 RES1               0.0000
      9 O9         190.0457 -10.9783  47.6445 O.2            1 RES1               0.0000
     10 N10        187.8624 -13.5324  49.8406 N.am           1 RES1               0.0000
     11 O11        189.0695 -13.2617  51.7175 O.2            1 RES1               0.0000
     12 C12        188.6192  -9.8817  50.3419 C.3            1 RES1               0.0000
     13 C13        193.4122 -13.1637  50.7021 C.ar           1 RES1               0.0000
     14 C14        192.7634 -14.3425  48.7352 C.ar           1 RES1               0.0000
     15 C15        187.6219 -13.4010  48.5000 C.2            1 RES1               0.0000
     16 C16        193.7017 -14.0754  49.7094 C.ar           1 RES1               0.0000
     17 O17        186.6893 -13.9672  47.9372 O.2            1 RES1               0.0000
     18 H18        190.0406 -10.8850  51.5918 H              1 RES1               0.0000
     19 H19        190.7401 -10.1179  50.1550 H              1 RES1               0.0000
     20 H20        191.9769 -11.8042  51.5093 H              1 RES1               0.0000
     21 H21        190.8138 -13.9256  47.9757 H              1 RES1               0.0000
     22 H22        188.3686 -12.5679  46.7918 H              1 RES1               0.0000
     23 H23        187.2001 -14.0880  50.3726 H              1 RES1               0.0000
     24 H24        188.6906  -8.9388  50.8800 H              1 RES1               0.0000
     25 H25        188.4488  -9.6598  49.2905 H              1 RES1               0.0000
     26 H26        187.7534 -10.4223  50.7188 H              1 RES1               0.0000
     27 H27        194.1478 -12.9488  51.4703 H              1 RES1               0.0000
     28 H28        192.9872 -15.0589  47.9517 H              1 RES1               0.0000
     29 H29        194.6624 -14.5795  49.6946 H              1 RES1               0.0000
@<TRIPOS>BOND
    1    1    2 1     
    2    1    3 1     
    3    1    4 1     
    4    1    5 1     
    5    2    6 ar    
    6    2    7 ar    
    7    3    8 1     
    8    3    9 2     
    9    4   10 1     
   10    4   11 2     
   11    5   12 1     
   12    5   18 1     
   13    5   19 1     
   14    6   13 ar    
   15    6   20 1     
   16    7   14 ar    
   17    7   21 1     
   18    8   15 1     
   19    8   22 1     
   20   10   15 1     
   21   10   23 1     
   22   12   24 1     
   23   12   25 1     
   24   12   26 1     
   25   13   16 ar    
   26   13   27 1     
   27   14   16 ar    
   28   14   28 1     
   29   15   17 2     
   30   16   29 1     
@<TRIPOS>SUBSTRUCTURE
      1 RES1           1
@<TRIPOS>SET
DONOR_HYDROGENS      STATIC     ATOMS    <user>   **** ""
2 22 23
ATOM$RED        STATIC     ATOMS    COLORGROUP SYSTEM
2 22 23
@<TRIPOS>COMMENT
> <Gold.Version>
2022.3.0

> <Gold.Id.Protein>
unknown|4v3u_clean|pdb

> <Gold.Protein.RotatedTorsions>
[ 6601 6555 6556 6557 ] final   85.76 input  119.23 | X-H torsion
[ 8042 8007 8008 8009 ] final   26.29 input   55.11 | X-H torsion
[ 8119 8084 8085 8086 ] final -159.41 input   97.66 | X-H torsion
[ 8180 8150 8151 8152 ] final  -27.22 input   74.82 | X-H torsion
[ 8260 8218 8219 8220 ] final   17.49 input   76.36 | X-H torsion
[ 9557 9518 9517 9515 ] final   44.84 input   59.97 | X-H torsion
[ 6681 6635 6636 6637 ] final  -41.29 input  125.14 | X-H torsion
[ 8323 8295 8296 8297 ] final -143.01 input   97.98 | X-H torsion
[ 10202 10167 10168 10169 ] final -179.39 input   38.66 | X-H torsion
[ 7961 7920 7921 7922 ] final  130.90 input   85.79 | X-H torsion
[ 6824 6784 6785 6786 ] final  -71.74 input  126.65 | X-H torsion
[ 7900 7873 7874 7875 ] final   91.08 input  103.19 | X-H torsion
[ 7904 7878 7877 7874 ] final  -56.53 input   60.02 | X-H torsion
[ 27201 6558 6557 6556 ] final  -45.12 input    0.00 | X-H torsion
[ 27203 7876 7875 7874 ] final  -27.14 input   -0.00 | X-H torsion
[ 27206 8010 8009 8008 ] final   71.65 input    0.00 | X-H torsion
[ 27209 8087 8086 8085 ] final  -12.93 input    0.00 | X-H torsion
[ 27212 8153 8152 8151 ] final -174.89 input   -0.00 | X-H torsion
[ 27219 10084 10083 10082 ] final   79.95 input    0.00 | X-H torsion
[ 27222 10170 10169 10168 ] final  175.68 input    0.00 | X-H torsion
[ 27225 7923 7922 7921 ] final  118.93 input   -0.00 | X-H torsion
[ 27227 6365 6364 6363 ] final  -38.23 input    0.00 | X-H torsion
[ 27230 7788 7787 7786 ] final  172.68 input    0.00 | X-H torsion
[ 27232 7715 7714 7713 ] final  175.58 input    0.00 | X-H torsion

> <Gold.Protein.ActiveResidues>
 THR404  ILE407  TYR408  ALA410  LYS411  TRP414  GLN425  TRP426  SER427  LYS428 
 LEU429  GLN430  VAL431  PHE432  ASP433  TYR453  SER462  ALA463  ILE464 

> <Gold.Protein.RotatedAtoms>
  196.4958   -9.8541   37.7197 H   0  0  0  0  0  0  0  0  0  0  0  0  # atno 6601 bound_to 6555
  197.3739   -8.6106   40.1766 H   0  0  0  0  0  0  0  0  0  0  0  0  # atno 6681 bound_to 6635
  196.3307   -4.3840   42.5365 H   0  0  0  0  0  0  0  0  0  0  0  0  # atno 6824 bound_to 6784
  197.5430   -7.1083   51.0586 H   0  0  0  0  0  0  0  0  0  0  0  0  # atno 7900 bound_to 7873
  198.5697   -8.4362   51.5919 H   0  0  0  0  0  0  0  0  0  0  0  0  # atno 7904 bound_to 7878
  195.5172   -8.5600   51.1444 H   0  0  0  0  0  0  0  0  0  0  0  0  # atno 7961 bound_to 7920
  193.2398   -9.2913   47.8809 H   0  0  0  0  0  0  0  0  0  0  0  0  # atno 8042 bound_to 8007
  190.4626   -9.0251   47.0445 H   0  0  0  0  0  0  0  0  0  0  0  0  # atno 8119 bound_to 8084
  188.9994   -9.6488   43.1627 H   0  0  0  0  0  0  0  0  0  0  0  0  # atno 8180 bound_to 8150
  188.7267   -7.5967   39.8578 H   0  0  0  0  0  0  0  0  0  0  0  0  # atno 8260 bound_to 8218
  188.3843   -8.8798   37.6498 H   0  0  0  0  0  0  0  0  0  0  0  0  # atno 8323 bound_to 8295
  186.0719  -12.3121   47.3770 H   0  0  0  0  0  0  0  0  0  0  0  0  # atno 9557 bound_to 9518
  188.3750   -4.4538   44.3626 H   0  0  0  0  0  0  0  0  0  0  0  0  # atno 10202 bound_to 10167
  195.5990   -8.3515   37.7359 LP  0  0  0  0  0  0  0  0  0  0  0  0  # atno 27200 bound_to 6555
  196.2488   -7.0937   41.1832 LP  0  0  0  0  0  0  0  0  0  0  0  0  # atno 27201 bound_to 6558
  197.4062   -7.9406   42.1544 LP  0  0  0  0  0  0  0  0  0  0  0  0  # atno 27202 bound_to 6558
  196.1597  -10.1119   47.7495 LP  0  0  0  0  0  0  0  0  0  0  0  0  # atno 27203 bound_to 7876
  195.0130  -10.7664   48.8706 LP  0  0  0  0  0  0  0  0  0  0  0  0  # atno 27204 bound_to 7876
  193.0551   -8.0472   49.0969 LP  0  0  0  0  0  0  0  0  0  0  0  0  # atno 27205 bound_to 8007
  192.5576  -10.1603   46.0865 LP  0  0  0  0  0  0  0  0  0  0  0  0  # atno 27206 bound_to 8010
  192.2277   -9.2514   44.6494 LP  0  0  0  0  0  0  0  0  0  0  0  0  # atno 27207 bound_to 8010
  190.2181   -7.5933   46.0724 LP  0  0  0  0  0  0  0  0  0  0  0  0  # atno 27208 bound_to 8084
  188.3387   -7.1288   44.5349 LP  0  0  0  0  0  0  0  0  0  0  0  0  # atno 27209 bound_to 8087
  189.0634   -6.9591   42.9710 LP  0  0  0  0  0  0  0  0  0  0  0  0  # atno 27210 bound_to 8087
  190.6977   -9.3450   43.4416 LP  0  0  0  0  0  0  0  0  0  0  0  0  # atno 27211 bound_to 8150
  188.2610  -10.7371   39.6064 LP  0  0  0  0  0  0  0  0  0  0  0  0  # atno 27212 bound_to 8153
  189.5149  -11.0445   40.7611 LP  0  0  0  0  0  0  0  0  0  0  0  0  # atno 27213 bound_to 8153
  188.0954   -8.7778   40.9787 LP  0  0  0  0  0  0  0  0  0  0  0  0  # atno 27214 bound_to 8218
  185.6459  -11.7293   48.8356 LP  0  0  0  0  0  0  0  0  0  0  0  0  # atno 27215 bound_to 9518
  186.5705  -10.8315   47.8327 LP  0  0  0  0  0  0  0  0  0  0  0  0  # atno 27216 bound_to 9518
  198.2839   -9.9193   39.4580 LP  0  0  0  0  0  0  0  0  0  0  0  0  # atno 27217 bound_to 6635
  187.0017   -9.7373   37.0011 LP  0  0  0  0  0  0  0  0  0  0  0  0  # atno 27218 bound_to 8295
  187.0957   -7.5199   48.0853 LP  0  0  0  0  0  0  0  0  0  0  0  0  # atno 27219 bound_to 10084
  188.7404   -7.3639   47.5649 LP  0  0  0  0  0  0  0  0  0  0  0  0  # atno 27220 bound_to 10084
  187.6662   -5.6519   43.3030 LP  0  0  0  0  0  0  0  0  0  0  0  0  # atno 27221 bound_to 10167
  187.5124   -6.1748   40.0682 LP  0  0  0  0  0  0  0  0  0  0  0  0  # atno 27222 bound_to 10170
  188.4745   -6.2744   41.5051 LP  0  0  0  0  0  0  0  0  0  0  0  0  # atno 27223 bound_to 10170
  195.4335   -8.4559   49.3987 LP  0  0  0  0  0  0  0  0  0  0  0  0  # atno 27224 bound_to 7920
  191.9399   -6.5652   49.8725 LP  0  0  0  0  0  0  0  0  0  0  0  0  # atno 27225 bound_to 7923
  191.1593   -7.9272   50.6044 LP  0  0  0  0  0  0  0  0  0  0  0  0  # atno 27226 bound_to 7923
  198.0592  -11.4616   38.8420 LP  0  0  0  0  0  0  0  0  0  0  0  0  # atno 27227 bound_to 6365
  199.5877  -10.8227   38.3366 LP  0  0  0  0  0  0  0  0  0  0  0  0  # atno 27228 bound_to 6365
  196.9913   -5.9700   42.2072 LP  0  0  0  0  0  0  0  0  0  0  0  0  # atno 27229 bound_to 6784
  196.2169   -7.0395   47.8864 LP  0  0  0  0  0  0  0  0  0  0  0  0  # atno 27230 bound_to 7788
  195.6753   -5.4016   48.0409 LP  0  0  0  0  0  0  0  0  0  0  0  0  # atno 27231 bound_to 7788
  195.0588   -6.2617   50.4869 LP  0  0  0  0  0  0  0  0  0  0  0  0  # atno 27232 bound_to 7715
  194.1226   -6.6614   51.8883 LP  0  0  0  0  0  0  0  0  0  0  0  0  # atno 27233 bound_to 7715
  197.0678   -6.3161   49.5809 LP  0  0  0  0  0  0  0  0  0  0  0  0  # atno 27234 bound_to 7873
  199.2055   -9.9341   51.5702 LP  0  0  0  0  0  0  0  0  0  0  0  0  # atno 27235 bound_to 7878
  197.5865   -9.7321   51.6388 LP  0  0  0  0  0  0  0  0  0  0  0  0  # atno 27236 bound_to 7878

> <Gold.Score>
     Fitness  S(hb_ext) S(vdw_ext)  S(hb_int)    S(int)      intcor
     25.52       6.05      14.67       0.00      -0.70      -0.76

> <Gold.Goldscore.Fitness>
25.5161

> <Gold.Goldscore.Internal.Vdw>
-0.9239

> <Gold.Goldscore.Internal.Torsion>
-0.5452

> <Gold.Goldscore.External.Vdw>
14.6677

> <Gold.Goldscore.Internal.HBond>
0.0000

> <Gold.Goldscore.External.HBond>
6.0522

> <Gold.Goldscore.Internal.Correction>
-0.7650

> <Gold.Goldscore.Hbonds>
donor molecule, donor type, donor heavy atom, donor atom, acceptor molecule, acceptor atom, score
      P1  H  8084  8119       L1     9  0.01
      P1  H  9518  9557       L1    17  0.01
      L1  H     8    22       P1  8092  1.00

> <Gold.Goldscore.Internal.Vdw.Weighted>
-0.9239

> <Gold.Goldscore.Internal.Torsion.Weighted>
-0.5452

> <Gold.Goldscore.External.Vdw.Weighted>
20.1681

> <Gold.Goldscore.Internal.HBond.Weighted>
0.0000

> <Gold.Goldscore.External.HBond.Weighted>
6.0522

> <Gold.Goldscore.Internal.Correction.Weighted>
-0.7650

> <Gold.Rescore>
     Score     S(PLP)   S(hbond)     S(cho)   S(metal)  DE(clash)   DE(tors)     intcor
     27.43     -21.23       2.43       0.00       0.00       0.00       0.55       ----

> <Gold.PLP.Fitness>
27.4329

> <Gold.PLP.PLP>
-21.2305

> <Gold.PLP.part.hbond>
-3.9880

> <Gold.PLP.part.metal>
0.0000

> <Gold.PLP.part.buried>
-2.6367

> <Gold.PLP.part.nonpolar>
-15.9327

> <Gold.PLP.part.repulsive>
0.3041

> <Gold.PLP.ligand.clash>
0.0000

> <Gold.PLP.ligand.torsion>
0.5511

> <Gold.PLP.Chemscore.Hbond>
2.4349

> <Gold.PLP.Chemscore.CHOScore>
0.0000

> <Gold.PLP.Chemscore.Metal>
0.0000

> <Gold.Chemscore.Hbonds>
donor molecule, donor type, donor heavy atom, donor atom, acceptor molecule, acceptor atom, score
      L1  H     8    22       P1  8092  0.73
      P1  H  8084  8119       L1     9  0.51
      P1  H  9518  9557       L1    17  0.29

> <Gold.PLP.Chemscore.Internal.Correction>
   9.000000E+99

