#       Name:                CT1002167954
#       Creating user name   hitesit
#       Creation time:       Sun Apr 16 22:58:09 2023


#       File generated by GOLD software.
#

@<TRIPOS>MOLECULE
CT1002167954|ligand_prepared|mol2|1|dock8
    29    30     1
SMALL
NO_CHARGES


@<TRIPOS>ATOM
      1 C1         188.9092 -11.6183  51.5708 C.3            1 RES1               0.0000
      2 C2         188.4851 -10.3428  52.3271 C.ar           1 RES1               0.0000
      3 C3         188.0142 -11.7030  50.3379 C.2            1 RES1               0.0000
      4 C4         190.3913 -11.4531  51.2534 C.2            1 RES1               0.0000
      5 C5         188.7384 -12.9176  52.3919 C.3            1 RES1               0.0000
      6 C6         188.8536  -9.0854  51.8582 C.ar           1 RES1               0.0000
      7 C7         187.7244 -10.4074  53.4915 C.ar           1 RES1               0.0000
      8 N8         188.5733 -11.4072  49.1297 N.am           1 RES1               0.0000
      9 O9         186.8261 -11.9864  50.4291 O.2            1 RES1               0.0000
     10 N10        190.7582 -11.3464  49.9374 N.am           1 RES1               0.0000
     11 O11        191.2431 -11.3977  52.1319 O.2            1 RES1               0.0000
     12 C12        189.3255 -14.1490  51.7203 C.3            1 RES1               0.0000
     13 C13        188.4729  -7.9341  52.5274 C.ar           1 RES1               0.0000
     14 C14        187.3450  -9.2548  54.1593 C.ar           1 RES1               0.0000
     15 C15        189.9133 -11.2851  48.8629 C.2            1 RES1               0.0000
     16 C16        187.7181  -8.0179  53.6780 C.ar           1 RES1               0.0000
     17 O17        190.3161 -11.1336  47.7131 O.2            1 RES1               0.0000
     18 H18        189.2205 -12.7842  53.3682 H              1 RES1               0.0000
     19 H19        187.6687 -13.0869  52.5665 H              1 RES1               0.0000
     20 H20        189.4496  -8.9998  50.9557 H              1 RES1               0.0000
     21 H21        187.4204 -11.3697  53.8891 H              1 RES1               0.0000
     22 H22        187.9362 -11.2634  48.3527 H              1 RES1               0.0000
     23 H23        191.7533 -11.3094  49.7406 H              1 RES1               0.0000
     24 H24        189.1785 -15.0324  52.3382 H              1 RES1               0.0000
     25 H25        188.8510 -14.3263  50.7573 H              1 RES1               0.0000
     26 H26        190.3937 -14.0255  51.5542 H              1 RES1               0.0000
     27 H27        188.7703  -6.9631  52.1453 H              1 RES1               0.0000
     28 H28        186.7515  -9.3255  55.0648 H              1 RES1               0.0000
     29 H29        187.4197  -7.1158  54.2019 H              1 RES1               0.0000
@<TRIPOS>BOND
    1    1    2 1     
    2    1    3 1     
    3    1    4 1     
    4    1    5 1     
    5    2    6 ar    
    6    2    7 ar    
    7    3    8 1     
    8    3    9 2     
    9    4   10 1     
   10    4   11 2     
   11    5   12 1     
   12    5   18 1     
   13    5   19 1     
   14    6   13 ar    
   15    6   20 1     
   16    7   14 ar    
   17    7   21 1     
   18    8   15 1     
   19    8   22 1     
   20   10   15 1     
   21   10   23 1     
   22   12   24 1     
   23   12   25 1     
   24   12   26 1     
   25   13   16 ar    
   26   13   27 1     
   27   14   16 ar    
   28   14   28 1     
   29   15   17 2     
   30   16   29 1     
@<TRIPOS>SUBSTRUCTURE
      1 RES1           1
@<TRIPOS>SET
DONOR_HYDROGENS      STATIC     ATOMS    <user>   **** ""
2 22 23
ATOM$RED        STATIC     ATOMS    COLORGROUP SYSTEM
2 22 23
@<TRIPOS>COMMENT
> <Gold.Version>
2022.3.0

> <Gold.Id.Protein>
unknown|4v3u_clean|pdb

> <Gold.Protein.RotatedTorsions>
[ 6601 6555 6556 6557 ] final   40.69 input  119.23 | X-H torsion
[ 8042 8007 8008 8009 ] final   75.91 input   55.11 | X-H torsion
[ 8119 8084 8085 8086 ] final -152.42 input   97.66 | X-H torsion
[ 8180 8150 8151 8152 ] final   75.57 input   74.82 | X-H torsion
[ 8260 8218 8219 8220 ] final   43.24 input   76.36 | X-H torsion
[ 9557 9518 9517 9515 ] final  -64.70 input   59.97 | X-H torsion
[ 6681 6635 6636 6637 ] final -177.06 input  125.14 | X-H torsion
[ 8323 8295 8296 8297 ] final -158.08 input   97.98 | X-H torsion
[ 10202 10167 10168 10169 ] final   46.70 input   38.66 | X-H torsion
[ 7961 7920 7921 7922 ] final -110.80 input   85.79 | X-H torsion
[ 6824 6784 6785 6786 ] final   58.60 input  126.65 | X-H torsion
[ 7900 7873 7874 7875 ] final  176.77 input  103.19 | X-H torsion
[ 7904 7878 7877 7874 ] final  146.85 input   60.02 | X-H torsion
[ 27201 6558 6557 6556 ] final   -0.61 input    0.00 | X-H torsion
[ 27203 7876 7875 7874 ] final -174.85 input   -0.00 | X-H torsion
[ 27206 8010 8009 8008 ] final  142.07 input    0.00 | X-H torsion
[ 27209 8087 8086 8085 ] final   -8.81 input    0.00 | X-H torsion
[ 27212 8153 8152 8151 ] final   -1.11 input   -0.00 | X-H torsion
[ 27219 10084 10083 10082 ] final  -92.71 input    0.00 | X-H torsion
[ 27222 10170 10169 10168 ] final   61.42 input    0.00 | X-H torsion
[ 27225 7923 7922 7921 ] final -147.37 input   -0.00 | X-H torsion
[ 27227 6365 6364 6363 ] final  -72.51 input    0.00 | X-H torsion
[ 27230 7788 7787 7786 ] final  -41.78 input    0.00 | X-H torsion
[ 27232 7715 7714 7713 ] final -177.79 input    0.00 | X-H torsion

> <Gold.Protein.ActiveResidues>
 THR404  ILE407  TYR408  ALA410  LYS411  TRP414  GLN425  TRP426  SER427  LYS428 
 LEU429  GLN430  VAL431  PHE432  ASP433  TYR453  SER462  ALA463  ILE464 

> <Gold.Protein.RotatedAtoms>
  196.8973   -9.3115   37.8100 H   0  0  0  0  0  0  0  0  0  0  0  0  # atno 6601 bound_to 6555
  198.0783  -10.0887   40.0604 H   0  0  0  0  0  0  0  0  0  0  0  0  # atno 6681 bound_to 6635
  197.4734   -5.4278   42.0889 H   0  0  0  0  0  0  0  0  0  0  0  0  # atno 6824 bound_to 6784
  198.1612   -6.6311   50.1625 H   0  0  0  0  0  0  0  0  0  0  0  0  # atno 7900 bound_to 7873
  198.7164  -10.2641   51.5895 H   0  0  0  0  0  0  0  0  0  0  0  0  # atno 7904 bound_to 7878
  195.7084   -9.2215   49.7796 H   0  0  0  0  0  0  0  0  0  0  0  0  # atno 7961 bound_to 7920
  193.7604   -8.7584   47.8646 H   0  0  0  0  0  0  0  0  0  0  0  0  # atno 8042 bound_to 8007
  190.5541   -9.0391   46.9890 H   0  0  0  0  0  0  0  0  0  0  0  0  # atno 8119 bound_to 8084
  190.2434  -10.2218   42.9788 H   0  0  0  0  0  0  0  0  0  0  0  0  # atno 8180 bound_to 8150
  188.4486   -7.3956   40.0495 H   0  0  0  0  0  0  0  0  0  0  0  0  # atno 8260 bound_to 8218
  188.4818   -9.0920   37.6399 H   0  0  0  0  0  0  0  0  0  0  0  0  # atno 8323 bound_to 8295
  185.6029  -11.8807   48.7678 H   0  0  0  0  0  0  0  0  0  0  0  0  # atno 9557 bound_to 9518
  188.3464   -5.7279   43.3396 H   0  0  0  0  0  0  0  0  0  0  0  0  # atno 10202 bound_to 10167
  195.2098   -8.8776   37.6484 LP  0  0  0  0  0  0  0  0  0  0  0  0  # atno 27200 bound_to 6555
  195.9698   -7.5560   41.5556 LP  0  0  0  0  0  0  0  0  0  0  0  0  # atno 27201 bound_to 6558
  197.6852   -7.4783   41.7819 LP  0  0  0  0  0  0  0  0  0  0  0  0  # atno 27202 bound_to 6558
  194.7657  -10.4673   48.5852 LP  0  0  0  0  0  0  0  0  0  0  0  0  # atno 27203 bound_to 7876
  196.4070  -10.4110   48.0349 LP  0  0  0  0  0  0  0  0  0  0  0  0  # atno 27204 bound_to 7876
  192.5499   -8.5643   49.1127 LP  0  0  0  0  0  0  0  0  0  0  0  0  # atno 27205 bound_to 8007
  191.7919  -10.3219   45.4660 LP  0  0  0  0  0  0  0  0  0  0  0  0  # atno 27206 bound_to 8010
  192.9934   -9.0898   45.2698 LP  0  0  0  0  0  0  0  0  0  0  0  0  # atno 27207 bound_to 8010
  190.1289   -7.5795   46.1266 LP  0  0  0  0  0  0  0  0  0  0  0  0  # atno 27208 bound_to 8084
  188.3908   -7.1050   44.5592 LP  0  0  0  0  0  0  0  0  0  0  0  0  # atno 27209 bound_to 8087
  189.0112   -6.9830   42.9467 LP  0  0  0  0  0  0  0  0  0  0  0  0  # atno 27210 bound_to 8087
  189.4828   -8.7855   43.6211 LP  0  0  0  0  0  0  0  0  0  0  0  0  # atno 27211 bound_to 8150
  189.5758  -11.0301   40.6911 LP  0  0  0  0  0  0  0  0  0  0  0  0  # atno 27212 bound_to 8153
  188.2001  -10.7515   39.6763 LP  0  0  0  0  0  0  0  0  0  0  0  0  # atno 27213 bound_to 8153
  188.3680   -8.9748   40.7909 LP  0  0  0  0  0  0  0  0  0  0  0  0  # atno 27214 bound_to 8218
  186.5178  -10.7831   47.9888 LP  0  0  0  0  0  0  0  0  0  0  0  0  # atno 27215 bound_to 9518
  186.1708  -12.2122   47.2791 LP  0  0  0  0  0  0  0  0  0  0  0  0  # atno 27216 bound_to 9518
  197.5981   -8.4802   39.5711 LP  0  0  0  0  0  0  0  0  0  0  0  0  # atno 27217 bound_to 6635
  186.9076   -9.5325   37.0108 LP  0  0  0  0  0  0  0  0  0  0  0  0  # atno 27218 bound_to 8295
  188.7677   -7.3745   47.6717 LP  0  0  0  0  0  0  0  0  0  0  0  0  # atno 27219 bound_to 10084
  187.0684   -7.5093   47.9785 LP  0  0  0  0  0  0  0  0  0  0  0  0  # atno 27220 bound_to 10084
  187.6939   -4.4160   44.2953 LP  0  0  0  0  0  0  0  0  0  0  0  0  # atno 27221 bound_to 10167
  187.5438   -6.4065   41.5041 LP  0  0  0  0  0  0  0  0  0  0  0  0  # atno 27222 bound_to 10170
  188.4431   -6.0427   40.0692 LP  0  0  0  0  0  0  0  0  0  0  0  0  # atno 27223 bound_to 10170
  195.2487   -7.8166   50.7177 LP  0  0  0  0  0  0  0  0  0  0  0  0  # atno 27224 bound_to 7920
  191.0095   -7.3659   49.5721 LP  0  0  0  0  0  0  0  0  0  0  0  0  # atno 27225 bound_to 7923
  192.0896   -7.1265   50.9048 LP  0  0  0  0  0  0  0  0  0  0  0  0  # atno 27226 bound_to 7923
  197.9702  -11.0020   38.6383 LP  0  0  0  0  0  0  0  0  0  0  0  0  # atno 27227 bound_to 6365
  199.6766  -11.2822   38.5403 LP  0  0  0  0  0  0  0  0  0  0  0  0  # atno 27228 bound_to 6365
  195.8820   -4.9565   42.6417 LP  0  0  0  0  0  0  0  0  0  0  0  0  # atno 27229 bound_to 6784
  195.3189   -5.7005   48.2572 LP  0  0  0  0  0  0  0  0  0  0  0  0  # atno 27230 bound_to 7788
  196.5733   -6.7406   47.6701 LP  0  0  0  0  0  0  0  0  0  0  0  0  # atno 27231 bound_to 7788
  195.1179   -6.3388   50.5116 LP  0  0  0  0  0  0  0  0  0  0  0  0  # atno 27232 bound_to 7715
  194.0635   -6.5843   51.8636 LP  0  0  0  0  0  0  0  0  0  0  0  0  # atno 27233 bound_to 7715
  196.4535   -6.7902   50.4714 LP  0  0  0  0  0  0  0  0  0  0  0  0  # atno 27234 bound_to 7873
  197.5391   -9.1416   51.6395 LP  0  0  0  0  0  0  0  0  0  0  0  0  # atno 27235 bound_to 7878
  199.1052   -8.6839   51.5719 LP  0  0  0  0  0  0  0  0  0  0  0  0  # atno 27236 bound_to 7878

> <Gold.Score>
     Fitness  S(hb_ext) S(vdw_ext)  S(hb_int)    S(int)      intcor
     23.74       0.14      17.18       0.00      -0.03      -0.76

> <Gold.Goldscore.Fitness>
23.7376

> <Gold.Goldscore.Internal.Vdw>
-0.3237

> <Gold.Goldscore.Internal.Torsion>
-0.4587

> <Gold.Goldscore.External.Vdw>
17.1797

> <Gold.Goldscore.Internal.HBond>
0.0000

> <Gold.Goldscore.External.HBond>
0.1412

> <Gold.Goldscore.Internal.Correction>
-0.7566

> <Gold.Goldscore.Hbonds>
donor molecule, donor type, donor heavy atom, donor atom, acceptor molecule, acceptor atom, score
      P1  H  8084  8119       L1    17  0.02
      P1  H  9518  9557       L1     9  0.03
      L1  H     8    22       P1  9518  0.01

> <Gold.Goldscore.Internal.Vdw.Weighted>
-0.3237

> <Gold.Goldscore.Internal.Torsion.Weighted>
-0.4587

> <Gold.Goldscore.External.Vdw.Weighted>
23.6221

> <Gold.Goldscore.Internal.HBond.Weighted>
0.0000

> <Gold.Goldscore.External.HBond.Weighted>
0.1412

> <Gold.Goldscore.Internal.Correction.Weighted>
-0.7566

> <Gold.Rescore>
     Score     S(PLP)   S(hbond)     S(cho)   S(metal)  DE(clash)   DE(tors)     intcor
     31.15     -28.50       0.91       0.00       0.00       0.00       0.05       ----

> <Gold.PLP.Fitness>
31.1491

> <Gold.PLP.PLP>
-28.5034

> <Gold.PLP.part.hbond>
-2.0000

> <Gold.PLP.part.metal>
0.0000

> <Gold.PLP.part.buried>
-2.3782

> <Gold.PLP.part.nonpolar>
-23.8219

> <Gold.PLP.part.repulsive>
0.1717

> <Gold.PLP.ligand.clash>
0.0000

> <Gold.PLP.ligand.torsion>
0.0464

> <Gold.PLP.Chemscore.Hbond>
0.9129

> <Gold.PLP.Chemscore.CHOScore>
0.0000

> <Gold.PLP.Chemscore.Metal>
0.0000

> <Gold.Chemscore.Hbonds>
donor molecule, donor type, donor heavy atom, donor atom, acceptor molecule, acceptor atom, score
      L1  H     8    22       P1  9518  0.44
      P1  H  8084  8119       L1    17  0.39
      P1  H  9518  9557       L1     9  0.54

> <Gold.PLP.Chemscore.Internal.Correction>
   9.000000E+99

