#       Name:                plp ligand
#       Creating user name   hitesit
#       Creation time:       Sun Apr 16 22:58:05 2023


#       File generated by GOLD software.
#

@<TRIPOS>MOLECULE
plp ligand
    29    30     1
SMALL
NO_CHARGES


@<TRIPOS>ATOM
      1 C1          -0.1044   0.5039   0.2092 NONPOLAR       1 RES1               0.0000
      2 C2          -0.0340  -1.0344   0.1229 NONPOLAR       1 RES1               0.0000
      3 C3           1.3352   1.0037   0.1316 NONPOLAR       1 RES1               0.0000
      4 C4          -0.9835   0.9565  -0.9514 NONPOLAR       1 RES1               0.0000
      5 C5          -0.7363   1.0279   1.5198 NONPOLAR       1 RES1               0.0000
      6 C6          -0.3888  -1.8223   1.2138 NONPOLAR       1 RES1               0.0000
      7 C7           0.3805  -1.6789  -1.0396 NONPOLAR       1 RES1               0.0000
      8 N8           1.7385   1.5904  -1.0316 DONOR          1 RES1               0.0000
      9 O9           2.1161   0.8498   1.0626 ACCEPTOR       1 RES1               0.0000
     10 N10         -0.4021   1.6986  -1.9459 DONOR          1 RES1               0.0000
     11 O11         -2.1706   0.6631  -1.0220 ACCEPTOR       1 RES1               0.0000
     12 C12         -0.8051   2.5446   1.6037 NONPOLAR       1 RES1               0.0000
     13 C13         -0.3341  -3.2045   1.1442 NONPOLAR       1 RES1               0.0000
     14 C14          0.4347  -3.0613  -1.1070 NONPOLAR       1 RES1               0.0000
     15 C15          0.9259   2.0100  -2.0540 NONPOLAR       1 RES1               0.0000
     16 C16          0.0772  -3.8249  -0.0162 NONPOLAR       1 RES1               0.0000
     17 O17          1.3828   2.6351  -3.0067 ACCEPTOR       1 RES1               0.0000
     18 H18         -1.7519   0.6229   1.6087                1 RES1               0.0000
     19 H19         -0.1506   0.6536   2.3685                1 RES1               0.0000
     20 H20         -0.7126  -1.3518   2.1362                1 RES1               0.0000
     21 H21          0.6675  -1.0984  -1.9098                1 RES1               0.0000
     22 H22          2.7366   1.7300  -1.1525                1 RES1               0.0000
     23 H23         -1.0162   2.0517  -2.6729                1 RES1               0.0000
     24 H24         -1.2565   2.8589   2.5424                1 RES1               0.0000
     25 H25          0.1903   2.9798   1.5439                1 RES1               0.0000
     26 H26         -1.4015   2.9493   0.7886                1 RES1               0.0000
     27 H27         -0.6152  -3.8009   2.0059                1 RES1               0.0000
     28 H28          0.7596  -3.5453  -2.0221                1 RES1               0.0000
     29 H29          0.1196  -4.9077  -0.0706                1 RES1               0.0000
@<TRIPOS>BOND
    1    1    2 1     
    2    1    3 1     
    3    1    4 1     
    4    1    5 1     
    5    2    6 ar    
    6    2    7 ar    
    7    3    8 1     
    8    3    9 2     
    9    4   10 1     
   10    4   11 2     
   11    5   12 1     
   12    5   18 1     
   13    5   19 1     
   14    6   13 ar    
   15    6   20 1     
   16    7   14 ar    
   17    7   21 1     
   18    8   15 1     
   19    8   22 1     
   20   10   15 1     
   21   10   23 1     
   22   12   24 1     
   23   12   25 1     
   24   12   26 1     
   25   13   16 ar    
   26   13   27 1     
   27   14   16 ar    
   28   14   28 1     
   29   15   17 2     
   30   16   29 1     
@<TRIPOS>SUBSTRUCTURE
      1 RES1           1
@<TRIPOS>SET
DONOR_HYDROGENS      STATIC     ATOMS    <user>   **** ""
2 22 23
ATOM$RED        STATIC     ATOMS    COLORGROUP SYSTEM
2 22 23
