#       Name:                CT1002167954
#       Creating user name   hitesit
#       Creation time:       Sun Apr 16 22:52:08 2023


#       File generated by GOLD software.
#

@<TRIPOS>MOLECULE
CT1002167954|ligand_prepared|mol2|1|dock8
    29    30     1
SMALL
NO_CHARGES


@<TRIPOS>ATOM
      1 C1         113.8859 243.9452 324.2528 C.3            1 RES1               0.0000
      2 C2         115.3218 244.2949 323.8116 C.ar           1 RES1               0.0000
      3 C3         113.1618 243.4524 323.0033 C.2            1 RES1               0.0000
      4 C4         114.0205 242.8942 325.3491 C.2            1 RES1               0.0000
      5 C5         113.1014 245.1444 324.8343 C.3            1 RES1               0.0000
      6 C6         115.7421 245.6203 323.7530 C.ar           1 RES1               0.0000
      7 C7         116.2366 243.3048 323.4632 C.ar           1 RES1               0.0000
      8 N8         112.9174 242.1146 322.9011 N.am           1 RES1               0.0000
      9 O9         112.8454 244.2205 322.1033 O.2            1 RES1               0.0000
     10 N10        113.5420 241.6357 325.0943 N.am           1 RES1               0.0000
     11 O11        114.5516 243.1401 326.4251 O.2            1 RES1               0.0000
     12 C12        111.7763 244.7586 325.4726 C.3            1 RES1               0.0000
     13 C13        117.0311 245.9440 323.3633 C.ar           1 RES1               0.0000
     14 C14        117.5251 243.6307 323.0735 C.ar           1 RES1               0.0000
     15 C15        113.0243 241.1900 323.9088 C.2            1 RES1               0.0000
     16 C16        117.9236 244.9496 323.0237 C.ar           1 RES1               0.0000
     17 O17        112.6652 240.0283 323.7395 O.2            1 RES1               0.0000
     18 H18        113.7245 245.6422 325.5874 H              1 RES1               0.0000
     19 H19        112.9091 245.8643 324.0292 H              1 RES1               0.0000
     20 H20        115.0531 246.4166 324.0142 H              1 RES1               0.0000
     21 H21        115.9448 242.2605 323.4940 H              1 RES1               0.0000
     22 H22        112.6284 241.7697 321.9912 H              1 RES1               0.0000
     23 H23        113.5747 240.9694 325.8594 H              1 RES1               0.0000
     24 H24        111.2668 245.6365 325.8644 H              1 RES1               0.0000
     25 H25        111.1215 244.2833 324.7452 H              1 RES1               0.0000
     26 H26        111.9322 244.0625 326.2942 H              1 RES1               0.0000
     27 H27        117.3394 246.9836 323.3244 H              1 RES1               0.0000
     28 H28        118.2240 242.8448 322.8066 H              1 RES1               0.0000
     29 H29        118.9334 245.2034 322.7188 H              1 RES1               0.0000
@<TRIPOS>BOND
    1    1    2 1     
    2    1    3 1     
    3    1    4 1     
    4    1    5 1     
    5    2    6 ar    
    6    2    7 ar    
    7    3    8 1     
    8    3    9 2     
    9    4   10 1     
   10    4   11 2     
   11    5   12 1     
   12    5   18 1     
   13    5   19 1     
   14    6   13 ar    
   15    6   20 1     
   16    7   14 ar    
   17    7   21 1     
   18    8   15 1     
   19    8   22 1     
   20   10   15 1     
   21   10   23 1     
   22   12   24 1     
   23   12   25 1     
   24   12   26 1     
   25   13   16 ar    
   26   13   27 1     
   27   14   16 ar    
   28   14   28 1     
   29   15   17 2     
   30   16   29 1     
@<TRIPOS>SUBSTRUCTURE
      1 RES1           1
@<TRIPOS>SET
DONOR_HYDROGENS      STATIC     ATOMS    <user>   **** ""
2 22 23
ATOM$RED        STATIC     ATOMS    COLORGROUP SYSTEM
2 22 23
@<TRIPOS>COMMENT
> <Gold.Version>
2022.3.0

> <Gold.Id.Protein>
unknown|4uch_clean|pdb

> <Gold.Protein.RotatedTorsions>
[ 1282 1268 1269 1270 ] final   56.88 input   42.93 | X-H torsion
[ 12864 12852 12853 12854 ] final  -55.22 input  102.46 | X-H torsion
[ 12872 12863 12862 12860 ] final   31.97 input   59.97 | X-H torsion
[ 12900 12891 12892 12893 ] final  152.51 input   33.49 | X-H torsion
[ 12960 12952 12953 12954 ] final   31.46 input  127.22 | X-H torsion
[ 13446 13426 13425 13421 ] final  162.08 input   59.98 | X-H torsion
[ 1244 1232 1233 1234 ] final  117.05 input  119.89 | X-H torsion
[ 5550 5545 5544 5541 ] final   60.52 input   60.01 | X-H torsion
[ 3548 3542 3543 3544 ] final  163.65 input   78.91 | X-H torsion
[ 3570 3563 3564 3565 ] final -144.54 input  104.01 | X-H torsion
[ 3596 3592 3593 3594 ] final   65.46 input   81.17 | X-H torsion
[ 8428 8423 8424 8425 ] final  170.40 input   41.93 | X-H torsion
[ 8452 8445 8446 8447 ] final -175.07 input   98.48 | X-H torsion
[ 8978 8972 8973 8974 ] final  -99.99 input   32.89 | X-H torsion
[ 8996 8992 8993 8994 ] final -140.72 input   45.98 | X-H torsion
[ 9030 9016 9017 9018 ] final   96.86 input   38.77 | X-H torsion
[ 9074 9062 9063 9064 ] final  -71.33 input   99.93 | X-H torsion
[ 9108 9100 9101 9102 ] final   57.03 input   97.82 | X-H torsion
[ 8482 8476 8477 8478 ] final  -25.77 input   55.16 | X-H torsion
[ 9082 9073 9072 9070 ] final -150.97 input   60.02 | X-H torsion
[ 8948 8937 8938 8939 ] final    6.16 input   49.52 | X-H torsion
[ 8982 8977 8976 8973 ] final   61.35 input   60.00 | X-H torsion
[ 4890 4885 4884 4881 ] final  159.43 input   59.99 | X-H torsion
[ 5574 5565 5566 5567 ] final  -53.02 input   50.85 | X-H torsion
[ 5606 5598 5599 5600 ] final -111.71 input  117.92 | X-H torsion
[ 8328 8319 8318 8316 ] final  171.06 input   59.98 | X-H torsion
[ 5644 5636 5637 5638 ] final  119.09 input   69.86 | X-H torsion
[ 13451 13428 13427 13425 ] final  -12.10 input   60.01 | X-H torsion
[ 8508 8500 8501 8502 ] final   68.94 input   75.08 | X-H torsion
[ 4906 4901 4902 4903 ] final  -58.72 input   29.84 | X-H torsion
[ 13460 1235 1234 1233 ] final  -89.89 input    0.00 | X-H torsion
[ 13464 8503 8502 8501 ] final   21.87 input    0.00 | X-H torsion
[ 13466 12822 12821 12820 ] final -179.52 input   -0.00 | X-H torsion
[ 13469 12855 12854 12853 ] final   90.83 input   -0.00 | X-H torsion
[ 13474 12894 12893 12892 ] final  -52.80 input    0.00 | X-H torsion
[ 13493 5543 5542 5541 ] final  -18.18 input    0.00 | X-H torsion
[ 13497 3502 3501 3500 ] final -130.39 input   -0.00 | X-H torsion
[ 13500 3545 3544 3543 ] final  112.06 input    0.00 | X-H torsion
[ 13505 8400 8399 8398 ] final -121.82 input   -0.00 | X-H torsion
[ 13509 8448 8447 8446 ] final   83.05 input    0.00 | X-H torsion
[ 13511 8940 8939 8938 ] final -118.12 input    0.00 | X-H torsion
[ 13514 8975 8974 8973 ] final  108.80 input   -0.00 | X-H torsion
[ 13517 8995 8994 8993 ] final  166.92 input    0.00 | X-H torsion
[ 13520 9019 9018 9017 ] final  -94.37 input   -0.00 | X-H torsion
[ 13528 8426 8425 8424 ] final  -65.37 input    0.00 | X-H torsion
[ 13530 8363 8362 8361 ] final -165.41 input    0.00 | X-H torsion
[ 13542 5639 5638 5637 ] final -166.83 input    0.00 | X-H torsion
[ 13548 9180 9179 9178 ] final -135.11 input   -0.00 | X-H torsion

> <Gold.Protein.ActiveResidues>
 TRP311  MET341  HIS342  TRP414  ALA417  ARG419  CYS420  VAL421  GLY422  ARG423 
 SER462  ALA463  SER482  GLN483  LEU484  ILE485  ARG486  TRP566  TYR567  LEU569 
 PRO570  ALA571  VAL572  SER573  ASN574  MET575  PHE589  SER590  GLY591  TRP592 
 TYR593  MET594  GLU597  ILE598  ARG601  ASP602  ARG608  TRP683  PHE696  GLU710 
 TYR711  GLN712  PRO713  ASP714  HEM750  H4B760 

> <Gold.Protein.RotatedAtoms>
  106.1161  253.0339  335.2437 H   0  0  0  0  0  0  0  0  0  0  0  0  # atno 1244 bound_to 1232
  105.4820  254.6270  332.9113 H   0  0  0  0  0  0  0  0  0  0  0  0  # atno 1282 bound_to 1268
  118.5184  251.9631  327.8896 H   0  0  0  0  0  0  0  0  0  0  0  0  # atno 3548 bound_to 3542
  121.0414  249.6406  329.0103 H   0  0  0  0  0  0  0  0  0  0  0  0  # atno 3570 bound_to 3563
  122.8084  248.7916  326.5184 H   0  0  0  0  0  0  0  0  0  0  0  0  # atno 3596 bound_to 3592
  125.3870  247.2997  318.2292 H   0  0  0  0  0  0  0  0  0  0  0  0  # atno 4890 bound_to 4885
  122.3397  248.0428  315.0172 H   0  0  0  0  0  0  0  0  0  0  0  0  # atno 4906 bound_to 4901
  107.1892  243.9329  320.4950 H   0  0  0  0  0  0  0  0  0  0  0  0  # atno 5550 bound_to 5545
  107.7512  244.8301  317.5862 H   0  0  0  0  0  0  0  0  0  0  0  0  # atno 5574 bound_to 5565
  109.8279  243.8532  315.8167 H   0  0  0  0  0  0  0  0  0  0  0  0  # atno 5606 bound_to 5598
  111.9337  240.8516  314.9532 H   0  0  0  0  0  0  0  0  0  0  0  0  # atno 5644 bound_to 5636
  112.0543  239.4073  321.0263 H   0  0  0  0  0  0  0  0  0  0  0  0  # atno 8328 bound_to 8319
  115.7513  242.4253  317.8607 H   0  0  0  0  0  0  0  0  0  0  0  0  # atno 8428 bound_to 8423
  114.3060  245.5128  318.9612 H   0  0  0  0  0  0  0  0  0  0  0  0  # atno 8452 bound_to 8445
  110.8876  248.2259  318.3855 H   0  0  0  0  0  0  0  0  0  0  0  0  # atno 8482 bound_to 8476
  109.5338  249.2367  318.6208 H   0  0  0  0  0  0  0  0  0  0  0  0  # atno 8508 bound_to 8500
  114.6258  248.4453  315.7362 H   0  0  0  0  0  0  0  0  0  0  0  0  # atno 8948 bound_to 8937
  117.6467  247.8298  316.8160 H   0  0  0  0  0  0  0  0  0  0  0  0  # atno 8978 bound_to 8972
  120.0585  244.7774  314.9033 H   0  0  0  0  0  0  0  0  0  0  0  0  # atno 8982 bound_to 8977
  119.9607  245.6779  317.5163 H   0  0  0  0  0  0  0  0  0  0  0  0  # atno 8996 bound_to 8992
  122.9178  243.4126  320.1424 H   0  0  0  0  0  0  0  0  0  0  0  0  # atno 9030 bound_to 9016
  121.6710  240.9487  321.9813 H   0  0  0  0  0  0  0  0  0  0  0  0  # atno 9074 bound_to 9062
  114.0673  238.1540  321.8849 H   0  0  0  0  0  0  0  0  0  0  0  0  # atno 9082 bound_to 9073
  120.2459  240.5787  325.5791 H   0  0  0  0  0  0  0  0  0  0  0  0  # atno 9108 bound_to 9100
  109.4298  256.9919  322.9782 H   0  0  0  0  0  0  0  0  0  0  0  0  # atno 12864 bound_to 12852
  111.1372  251.3155  327.3889 H   0  0  0  0  0  0  0  0  0  0  0  0  # atno 12872 bound_to 12863
  106.7878  255.8615  321.8285 H   0  0  0  0  0  0  0  0  0  0  0  0  # atno 12900 bound_to 12891
  100.0377  253.2752  321.0033 H   0  0  0  0  0  0  0  0  0  0  0  0  # atno 12960 bound_to 12952
  107.9748  246.6034  337.0412 H   0  0  0  0  0  0  0  0  0  0  0  0  # atno 13446 bound_to 13426
  109.9241  250.0268  335.7689 H   0  0  0  0  0  0  0  0  0  0  0  0  # atno 13451 bound_to 13428
  109.1013  254.7071  331.8569 LP  0  0  0  0  0  0  0  0  0  0  0  0  # atno 13460 bound_to 1235
  108.2299  253.7071  330.7431 LP  0  0  0  0  0  0  0  0  0  0  0  0  # atno 13461 bound_to 1235
  107.1881  254.4449  332.5570 LP  0  0  0  0  0  0  0  0  0  0  0  0  # atno 13462 bound_to 1268
  106.2636  252.0993  319.4873 LP  0  0  0  0  0  0  0  0  0  0  0  0  # atno 13464 bound_to 8503
  107.2794  253.4771  319.2234 LP  0  0  0  0  0  0  0  0  0  0  0  0  # atno 13465 bound_to 8503
  109.1502  255.4168  321.5691 LP  0  0  0  0  0  0  0  0  0  0  0  0  # atno 13466 bound_to 12822
  110.5009  256.3438  321.0068 LP  0  0  0  0  0  0  0  0  0  0  0  0  # atno 13467 bound_to 12822
  109.2968  256.6905  324.6918 LP  0  0  0  0  0  0  0  0  0  0  0  0  # atno 13468 bound_to 12852
  107.1695  258.1411  322.0224 LP  0  0  0  0  0  0  0  0  0  0  0  0  # atno 13469 bound_to 12855
  106.1658  258.1140  323.4338 LP  0  0  0  0  0  0  0  0  0  0  0  0  # atno 13470 bound_to 12855
  110.0813  251.4104  328.6233 LP  0  0  0  0  0  0  0  0  0  0  0  0  # atno 13471 bound_to 12863
  111.2697  252.5204  328.4744 LP  0  0  0  0  0  0  0  0  0  0  0  0  # atno 13472 bound_to 12863
  105.6921  255.0201  322.8985 LP  0  0  0  0  0  0  0  0  0  0  0  0  # atno 13473 bound_to 12891
  104.3029  253.5395  321.5388 LP  0  0  0  0  0  0  0  0  0  0  0  0  # atno 13474 bound_to 12894
  103.0597  253.8272  322.7099 LP  0  0  0  0  0  0  0  0  0  0  0  0  # atno 13475 bound_to 12894
  101.6216  252.5915  321.2869 LP  0  0  0  0  0  0  0  0  0  0  0  0  # atno 13476 bound_to 12952
  109.5262  246.1416  336.8762 LP  0  0  0  0  0  0  0  0  0  0  0  0  # atno 13490 bound_to 13426
  108.4710  245.9218  335.6495 LP  0  0  0  0  0  0  0  0  0  0  0  0  # atno 13491 bound_to 13426
  107.5413  254.0473  335.3193 LP  0  0  0  0  0  0  0  0  0  0  0  0  # atno 13492 bound_to 1232
  108.9221  247.1929  318.9789 LP  0  0  0  0  0  0  0  0  0  0  0  0  # atno 13493 bound_to 5543
  109.9914  245.8317  319.0420 LP  0  0  0  0  0  0  0  0  0  0  0  0  # atno 13494 bound_to 5543
  105.6782  243.7377  319.9226 LP  0  0  0  0  0  0  0  0  0  0  0  0  # atno 13495 bound_to 5545
  105.9166  244.1177  321.4927 LP  0  0  0  0  0  0  0  0  0  0  0  0  # atno 13496 bound_to 5545
  118.9289  249.3792  329.7096 LP  0  0  0  0  0  0  0  0  0  0  0  0  # atno 13497 bound_to 3502
  117.2371  249.6848  329.4984 LP  0  0  0  0  0  0  0  0  0  0  0  0  # atno 13498 bound_to 3502
  119.6831  251.7553  329.1732 LP  0  0  0  0  0  0  0  0  0  0  0  0  # atno 13499 bound_to 3542
  122.5890  251.4655  328.8872 LP  0  0  0  0  0  0  0  0  0  0  0  0  # atno 13500 bound_to 3545
  122.6384  251.3853  327.1577 LP  0  0  0  0  0  0  0  0  0  0  0  0  # atno 13501 bound_to 3545
  121.3053  248.5983  327.6273 LP  0  0  0  0  0  0  0  0  0  0  0  0  # atno 13502 bound_to 3563
  123.8169  248.0613  327.7441 LP  0  0  0  0  0  0  0  0  0  0  0  0  # atno 13503 bound_to 3592
  117.2157  244.4424  318.8366 LP  0  0  0  0  0  0  0  0  0  0  0  0  # atno 13505 bound_to 8400
  118.0500  243.2071  317.9546 LP  0  0  0  0  0  0  0  0  0  0  0  0  # atno 13506 bound_to 8400
  114.4825  243.0020  318.9103 LP  0  0  0  0  0  0  0  0  0  0  0  0  # atno 13507 bound_to 8423
  114.2283  246.3237  317.4147 LP  0  0  0  0  0  0  0  0  0  0  0  0  # atno 13508 bound_to 8445
  113.5292  248.2123  316.3007 LP  0  0  0  0  0  0  0  0  0  0  0  0  # atno 13509 bound_to 8448
  113.0935  249.5601  317.2976 LP  0  0  0  0  0  0  0  0  0  0  0  0  # atno 13510 bound_to 8448
  116.1431  246.9599  317.9611 LP  0  0  0  0  0  0  0  0  0  0  0  0  # atno 13511 bound_to 8940
  115.2068  246.8338  316.5093 LP  0  0  0  0  0  0  0  0  0  0  0  0  # atno 13512 bound_to 8940
  118.4454  247.4494  315.3098 LP  0  0  0  0  0  0  0  0  0  0  0  0  # atno 13513 bound_to 8972
  121.1459  247.2730  317.2383 LP  0  0  0  0  0  0  0  0  0  0  0  0  # atno 13514 bound_to 8975
  121.0968  246.3238  315.7903 LP  0  0  0  0  0  0  0  0  0  0  0  0  # atno 13515 bound_to 8975
  119.3633  244.3777  318.5203 LP  0  0  0  0  0  0  0  0  0  0  0  0  # atno 13516 bound_to 8992
  121.8174  241.5605  317.9864 LP  0  0  0  0  0  0  0  0  0  0  0  0  # atno 13517 bound_to 8995
  120.9973  242.8180  317.1226 LP  0  0  0  0  0  0  0  0  0  0  0  0  # atno 13518 bound_to 8995
  121.2124  243.2960  319.7853 LP  0  0  0  0  0  0  0  0  0  0  0  0  # atno 13519 bound_to 9016
  122.2968  242.4429  323.2107 LP  0  0  0  0  0  0  0  0  0  0  0  0  # atno 13520 bound_to 9019
  120.7014  242.7661  322.6187 LP  0  0  0  0  0  0  0  0  0  0  0  0  # atno 13521 bound_to 9019
  121.4237  239.2940  321.4777 LP  0  0  0  0  0  0  0  0  0  0  0  0  # atno 13522 bound_to 9062
  121.8533  240.3590  324.9303 LP  0  0  0  0  0  0  0  0  0  0  0  0  # atno 13523 bound_to 9100
  112.2848  244.6452  316.4197 LP  0  0  0  0  0  0  0  0  0  0  0  0  # atno 13528 bound_to 8426
  111.9184  244.3929  318.0936 LP  0  0  0  0  0  0  0  0  0  0  0  0  # atno 13529 bound_to 8426
  114.9311  240.4563  317.5333 LP  0  0  0  0  0  0  0  0  0  0  0  0  # atno 13530 bound_to 8363
  115.1742  239.0174  316.6002 LP  0  0  0  0  0  0  0  0  0  0  0  0  # atno 13531 bound_to 8363
  111.4025  246.8883  317.3881 LP  0  0  0  0  0  0  0  0  0  0  0  0  # atno 13532 bound_to 8476
  114.2658  239.7551  321.6727 LP  0  0  0  0  0  0  0  0  0  0  0  0  # atno 13533 bound_to 9073
  113.9219  239.1614  323.1546 LP  0  0  0  0  0  0  0  0  0  0  0  0  # atno 13534 bound_to 9073
  114.9285  249.9207  314.8471 LP  0  0  0  0  0  0  0  0  0  0  0  0  # atno 13535 bound_to 8937
  119.0520  245.8191  314.1617 LP  0  0  0  0  0  0  0  0  0  0  0  0  # atno 13536 bound_to 8977
  118.9272  244.2160  313.8770 LP  0  0  0  0  0  0  0  0  0  0  0  0  # atno 13537 bound_to 8977
  125.2479  245.9059  317.4015 LP  0  0  0  0  0  0  0  0  0  0  0  0  # atno 13538 bound_to 4885
  123.9738  246.4935  318.2371 LP  0  0  0  0  0  0  0  0  0  0  0  0  # atno 13539 bound_to 4885
  108.0055  243.9325  319.0639 LP  0  0  0  0  0  0  0  0  0  0  0  0  # atno 13540 bound_to 5565
  111.3085  242.9855  316.1440 LP  0  0  0  0  0  0  0  0  0  0  0  0  # atno 13541 bound_to 5598
  110.4812  238.9531  318.6360 LP  0  0  0  0  0  0  0  0  0  0  0  0  # atno 13542 bound_to 5639
  111.5652  239.8729  317.6465 LP  0  0  0  0  0  0  0  0  0  0  0  0  # atno 13543 bound_to 5639
  111.2993  238.1812  321.7850 LP  0  0  0  0  0  0  0  0  0  0  0  0  # atno 13544 bound_to 8319
  110.5918  238.9146  320.5091 LP  0  0  0  0  0  0  0  0  0  0  0  0  # atno 13545 bound_to 8319
  113.5125  237.2831  328.8839 LP  0  0  0  0  0  0  0  0  0  0  0  0  # atno 13548 bound_to 9180
  113.4392  238.8765  328.2090 LP  0  0  0  0  0  0  0  0  0  0  0  0  # atno 13549 bound_to 9180
  110.2128  241.1253  315.1094 LP  0  0  0  0  0  0  0  0  0  0  0  0  # atno 13552 bound_to 5636

> <Gold.Score>
     Fitness  S(hb_ext) S(vdw_ext)  S(hb_int)    S(int)      intcor
     39.55       4.22      26.32       0.00      -0.86      -0.76

> <Gold.Goldscore.Fitness>
39.5536

> <Gold.Goldscore.Internal.Vdw>
-1.1142

> <Gold.Goldscore.Internal.Torsion>
-0.5006

> <Gold.Goldscore.External.Vdw>
26.3229

> <Gold.Goldscore.Internal.HBond>
0.0000

> <Gold.Goldscore.External.HBond>
4.2159

> <Gold.Goldscore.Internal.Correction>
-0.7585

> <Gold.Goldscore.Hbonds>
donor molecule, donor type, donor heavy atom, donor atom, acceptor molecule, acceptor atom, score
      L1  H     8    22       P1  5573  0.70

> <Gold.Goldscore.Internal.Vdw.Weighted>
-1.1142

> <Gold.Goldscore.Internal.Torsion.Weighted>
-0.5006

> <Gold.Goldscore.External.Vdw.Weighted>
36.1939

> <Gold.Goldscore.Internal.HBond.Weighted>
0.0000

> <Gold.Goldscore.External.HBond.Weighted>
4.2159

> <Gold.Goldscore.Internal.Correction.Weighted>
-0.7585

> <Gold.Rescore>
     Score     S(PLP)   S(hbond)     S(cho)   S(metal)  DE(clash)   DE(tors)     intcor
     24.41     -25.16       0.20       0.00       0.00       0.00       0.68       ----

> <Gold.PLP.Fitness>
24.4107

> <Gold.PLP.PLP>
-25.1594

> <Gold.PLP.part.hbond>
-3.3252

> <Gold.PLP.part.metal>
0.0000

> <Gold.PLP.part.buried>
8.7347

> <Gold.PLP.part.nonpolar>
-34.6427

> <Gold.PLP.part.repulsive>
2.4987

> <Gold.PLP.ligand.clash>
0.0000

> <Gold.PLP.ligand.torsion>
0.6801

> <Gold.PLP.Chemscore.Hbond>
0.2038

> <Gold.PLP.Chemscore.CHOScore>
0.0000

> <Gold.PLP.Chemscore.Metal>
0.0000

> <Gold.Chemscore.Hbonds>
donor molecule, donor type, donor heavy atom, donor atom, acceptor molecule, acceptor atom, score
      L1  H     8    22       P1  5573  0.40

> <Gold.PLP.Chemscore.Internal.Correction>
   9.000000E+99

#       Name:                CT1002167954
#       Creating user name   hitesit
#       Creation time:       Sun Apr 16 22:52:05 2023


#       File generated by GOLD software.
#

@<TRIPOS>MOLECULE
CT1002167954|ligand_prepared|mol2|1|dock5
    29    30     1
SMALL
NO_CHARGES


@<TRIPOS>ATOM
      1 C1         117.6530 245.2763 322.7949 C.3            1 RES1               0.0000
      2 C2         116.2040 244.7822 322.6073 C.ar           1 RES1               0.0000
      3 C3         118.4342 244.7839 321.5802 C.2            1 RES1               0.0000
      4 C4         117.5743 246.7946 322.9102 C.2            1 RES1               0.0000
      5 C5         118.3374 244.7350 324.0716 C.3            1 RES1               0.0000
      6 C6         115.7606 244.3428 321.3635 C.ar           1 RES1               0.0000
      7 C7         115.3016 244.7574 323.6674 C.ar           1 RES1               0.0000
      8 N8         118.7769 245.7041 320.6338 N.am           1 RES1               0.0000
      9 O9         118.7109 243.5995 321.4357 O.2            1 RES1               0.0000
     10 N10        118.1475 247.5446 321.9169 N.am           1 RES1               0.0000
     11 O11        117.0067 247.3481 323.8439 O.2            1 RES1               0.0000
     12 C12        119.2306 243.5295 323.8243 C.3            1 RES1               0.0000
     13 C13        114.4629 243.8922 321.1864 C.ar           1 RES1               0.0000
     14 C14        114.0043 244.3065 323.4880 C.ar           1 RES1               0.0000
     15 C15        118.7184 247.0680 320.7683 C.2            1 RES1               0.0000
     16 C16        113.5842 243.8733 322.2485 C.ar           1 RES1               0.0000
     17 O17        119.1639 247.8074 319.8954 O.2            1 RES1               0.0000
     18 H18        118.9408 245.5364 324.5156 H              1 RES1               0.0000
     19 H19        117.5626 244.4575 324.7970 H              1 RES1               0.0000
     20 H20        116.4372 244.3527 320.5155 H              1 RES1               0.0000
     21 H21        115.6099 245.0945 324.6512 H              1 RES1               0.0000
     22 H22        119.1071 245.3449 319.7437 H              1 RES1               0.0000
     23 H23        118.1489 248.5514 322.0456 H              1 RES1               0.0000
     24 H24        119.6858 243.1899 324.7523 H              1 RES1               0.0000
     25 H25        118.6578 242.7044 323.4061 H              1 RES1               0.0000
     26 H26        120.0278 243.7768 323.1263 H              1 RES1               0.0000
     27 H27        114.1368 243.5536 320.2086 H              1 RES1               0.0000
     28 H28        113.3159 244.2940 324.3266 H              1 RES1               0.0000
     29 H29        112.5678 243.5198 322.1096 H              1 RES1               0.0000
@<TRIPOS>BOND
    1    1    2 1     
    2    1    3 1     
    3    1    4 1     
    4    1    5 1     
    5    2    6 ar    
    6    2    7 ar    
    7    3    8 1     
    8    3    9 2     
    9    4   10 1     
   10    4   11 2     
   11    5   12 1     
   12    5   18 1     
   13    5   19 1     
   14    6   13 ar    
   15    6   20 1     
   16    7   14 ar    
   17    7   21 1     
   18    8   15 1     
   19    8   22 1     
   20   10   15 1     
   21   10   23 1     
   22   12   24 1     
   23   12   25 1     
   24   12   26 1     
   25   13   16 ar    
   26   13   27 1     
   27   14   16 ar    
   28   14   28 1     
   29   15   17 2     
   30   16   29 1     
@<TRIPOS>SUBSTRUCTURE
      1 RES1           1
@<TRIPOS>SET
DONOR_HYDROGENS      STATIC     ATOMS    <user>   **** ""
2 22 23
ATOM$RED        STATIC     ATOMS    COLORGROUP SYSTEM
2 22 23
@<TRIPOS>COMMENT
> <Gold.Version>
2022.3.0

> <Gold.Id.Protein>
unknown|4uch_clean|pdb

> <Gold.Protein.RotatedTorsions>
[ 1282 1268 1269 1270 ] final   -2.72 input   42.93 | X-H torsion
[ 12864 12852 12853 12854 ] final  153.00 input  102.46 | X-H torsion
[ 12872 12863 12862 12860 ] final  -58.76 input   59.97 | X-H torsion
[ 12900 12891 12892 12893 ] final  -82.79 input   33.49 | X-H torsion
[ 12960 12952 12953 12954 ] final  -84.32 input  127.22 | X-H torsion
[ 13446 13426 13425 13421 ] final  168.94 input   59.98 | X-H torsion
[ 1244 1232 1233 1234 ] final  120.80 input  119.89 | X-H torsion
[ 5550 5545 5544 5541 ] final -127.99 input   60.01 | X-H torsion
[ 3548 3542 3543 3544 ] final  -78.44 input   78.91 | X-H torsion
[ 3570 3563 3564 3565 ] final  177.16 input  104.01 | X-H torsion
[ 3596 3592 3593 3594 ] final    2.95 input   81.17 | X-H torsion
[ 8428 8423 8424 8425 ] final  114.70 input   41.93 | X-H torsion
[ 8452 8445 8446 8447 ] final  -89.34 input   98.48 | X-H torsion
[ 8978 8972 8973 8974 ] final   90.81 input   32.89 | X-H torsion
[ 8996 8992 8993 8994 ] final  -76.33 input   45.98 | X-H torsion
[ 9030 9016 9017 9018 ] final  -10.62 input   38.77 | X-H torsion
[ 9074 9062 9063 9064 ] final  128.49 input   99.93 | X-H torsion
[ 9108 9100 9101 9102 ] final   55.22 input   97.82 | X-H torsion
[ 8482 8476 8477 8478 ] final -127.13 input   55.16 | X-H torsion
[ 9082 9073 9072 9070 ] final -109.75 input   60.02 | X-H torsion
[ 8948 8937 8938 8939 ] final -173.78 input   49.52 | X-H torsion
[ 8982 8977 8976 8973 ] final  -62.30 input   60.00 | X-H torsion
[ 4890 4885 4884 4881 ] final   99.59 input   59.99 | X-H torsion
[ 5574 5565 5566 5567 ] final  -22.19 input   50.85 | X-H torsion
[ 5606 5598 5599 5600 ] final  -15.79 input  117.92 | X-H torsion
[ 8328 8319 8318 8316 ] final  173.84 input   59.98 | X-H torsion
[ 5644 5636 5637 5638 ] final  -82.41 input   69.86 | X-H torsion
[ 13451 13428 13427 13425 ] final  136.01 input   60.01 | X-H torsion
[ 8508 8500 8501 8502 ] final -143.45 input   75.08 | X-H torsion
[ 4906 4901 4902 4903 ] final  -85.23 input   29.84 | X-H torsion
[ 13460 1235 1234 1233 ] final   44.02 input    0.00 | X-H torsion
[ 13464 8503 8502 8501 ] final  -47.43 input    0.00 | X-H torsion
[ 13466 12822 12821 12820 ] final   77.41 input   -0.00 | X-H torsion
[ 13469 12855 12854 12853 ] final  159.09 input   -0.00 | X-H torsion
[ 13474 12894 12893 12892 ] final -126.37 input    0.00 | X-H torsion
[ 13493 5543 5542 5541 ] final   64.81 input    0.00 | X-H torsion
[ 13497 3502 3501 3500 ] final  -54.70 input   -0.00 | X-H torsion
[ 13500 3545 3544 3543 ] final -159.69 input    0.00 | X-H torsion
[ 13505 8400 8399 8398 ] final -154.38 input   -0.00 | X-H torsion
[ 13509 8448 8447 8446 ] final -145.16 input    0.00 | X-H torsion
[ 13511 8940 8939 8938 ] final -135.85 input    0.00 | X-H torsion
[ 13514 8975 8974 8973 ] final   52.41 input   -0.00 | X-H torsion
[ 13517 8995 8994 8993 ] final  -63.18 input    0.00 | X-H torsion
[ 13520 9019 9018 9017 ] final   56.72 input   -0.00 | X-H torsion
[ 13528 8426 8425 8424 ] final   37.02 input    0.00 | X-H torsion
[ 13530 8363 8362 8361 ] final  -47.24 input    0.00 | X-H torsion
[ 13542 5639 5638 5637 ] final -170.96 input    0.00 | X-H torsion
[ 13548 9180 9179 9178 ] final -128.62 input   -0.00 | X-H torsion

> <Gold.Protein.ActiveResidues>
 TRP311  MET341  HIS342  TRP414  ALA417  ARG419  CYS420  VAL421  GLY422  ARG423 
 SER462  ALA463  SER482  GLN483  LEU484  ILE485  ARG486  TRP566  TYR567  LEU569 
 PRO570  ALA571  VAL572  SER573  ASN574  MET575  PHE589  SER590  GLY591  TRP592 
 TYR593  MET594  GLU597  ILE598  ARG601  ASP602  ARG608  TRP683  PHE696  GLU710 
 TYR711  GLN712  PRO713  ASP714  HEM750  H4B760 

> <Gold.Protein.RotatedAtoms>
  106.1480  252.9908  335.2665 H   0  0  0  0  0  0  0  0  0  0  0  0  # atno 1244 bound_to 1232
  106.0842  255.0359  333.4194 H   0  0  0  0  0  0  0  0  0  0  0  0  # atno 1282 bound_to 1268
  118.9221  251.2741  329.1683 H   0  0  0  0  0  0  0  0  0  0  0  0  # atno 3548 bound_to 3542
  120.8132  249.1132  329.1211 H   0  0  0  0  0  0  0  0  0  0  0  0  # atno 3570 bound_to 3563
  123.4684  249.2695  326.9379 H   0  0  0  0  0  0  0  0  0  0  0  0  # atno 3596 bound_to 3592
  125.7613  246.6450  317.6789 H   0  0  0  0  0  0  0  0  0  0  0  0  # atno 4890 bound_to 4885
  122.6960  248.0173  314.8268 H   0  0  0  0  0  0  0  0  0  0  0  0  # atno 4906 bound_to 4901
  105.3680  243.9606  320.9090 H   0  0  0  0  0  0  0  0  0  0  0  0  # atno 5550 bound_to 5545
  107.5805  244.4006  317.5023 H   0  0  0  0  0  0  0  0  0  0  0  0  # atno 5574 bound_to 5565
  110.1875  242.6834  316.2889 H   0  0  0  0  0  0  0  0  0  0  0  0  # atno 5606 bound_to 5598
  110.2093  241.0596  314.7883 H   0  0  0  0  0  0  0  0  0  0  0  0  # atno 5644 bound_to 5636
  112.0338  239.4270  320.9909 H   0  0  0  0  0  0  0  0  0  0  0  0  # atno 8328 bound_to 8319
  114.9803  242.2025  317.6885 H   0  0  0  0  0  0  0  0  0  0  0  0  # atno 8428 bound_to 8423
  113.6969  245.2871  317.9481 H   0  0  0  0  0  0  0  0  0  0  0  0  # atno 8452 bound_to 8445
  111.9493  247.8181  317.6351 H   0  0  0  0  0  0  0  0  0  0  0  0  # atno 8482 bound_to 8476
  108.8671  248.9452  317.0948 H   0  0  0  0  0  0  0  0  0  0  0  0  # atno 8508 bound_to 8500
  114.9458  249.9399  314.8363 H   0  0  0  0  0  0  0  0  0  0  0  0  # atno 8948 bound_to 8937
  118.3036  247.3925  315.2464 H   0  0  0  0  0  0  0  0  0  0  0  0  # atno 8978 bound_to 8972
  119.0119  245.7906  314.1271 H   0  0  0  0  0  0  0  0  0  0  0  0  # atno 8982 bound_to 8977
  119.9459  244.7823  317.2223 H   0  0  0  0  0  0  0  0  0  0  0  0  # atno 8996 bound_to 8992
  121.6188  243.5137  320.7096 H   0  0  0  0  0  0  0  0  0  0  0  0  # atno 9030 bound_to 9016
  121.1607  239.3992  321.3751 H   0  0  0  0  0  0  0  0  0  0  0  0  # atno 9074 bound_to 9062
  113.9421  238.1447  322.5320 H   0  0  0  0  0  0  0  0  0  0  0  0  # atno 9082 bound_to 9073
  120.2407  240.5519  325.5740 H   0  0  0  0  0  0  0  0  0  0  0  0  # atno 9108 bound_to 9100
  109.5653  256.3854  324.5655 H   0  0  0  0  0  0  0  0  0  0  0  0  # atno 12864 bound_to 12852
  110.1441  251.1178  328.2546 H   0  0  0  0  0  0  0  0  0  0  0  0  # atno 12872 bound_to 12863
  105.9248  255.7616  323.1310 H   0  0  0  0  0  0  0  0  0  0  0  0  # atno 12900 bound_to 12891
  101.4770  253.1908  320.5913 H   0  0  0  0  0  0  0  0  0  0  0  0  # atno 12960 bound_to 12952
  107.9075  246.5856  336.9536 H   0  0  0  0  0  0  0  0  0  0  0  0  # atno 13446 bound_to 13426
  108.8509  250.8037  336.9866 H   0  0  0  0  0  0  0  0  0  0  0  0  # atno 13451 bound_to 13428
  108.6256  253.3527  331.1643 LP  0  0  0  0  0  0  0  0  0  0  0  0  # atno 13460 bound_to 1235
  108.7056  255.0615  331.4357 LP  0  0  0  0  0  0  0  0  0  0  0  0  # atno 13461 bound_to 1235
  106.6091  254.0517  332.0684 LP  0  0  0  0  0  0  0  0  0  0  0  0  # atno 13462 bound_to 1268
  106.3060  252.6109  318.6469 LP  0  0  0  0  0  0  0  0  0  0  0  0  # atno 13464 bound_to 8503
  107.2370  252.9656  320.0638 LP  0  0  0  0  0  0  0  0  0  0  0  0  # atno 13465 bound_to 8503
  110.5064  255.4193  321.5599 LP  0  0  0  0  0  0  0  0  0  0  0  0  # atno 13466 bound_to 12822
  109.1448  256.3413  321.0160 LP  0  0  0  0  0  0  0  0  0  0  0  0  # atno 13467 bound_to 12822
  109.1632  257.2882  323.1274 LP  0  0  0  0  0  0  0  0  0  0  0  0  # atno 13468 bound_to 12852
  106.1987  258.1014  322.0005 LP  0  0  0  0  0  0  0  0  0  0  0  0  # atno 13469 bound_to 12855
  107.1366  258.1538  323.4557 LP  0  0  0  0  0  0  0  0  0  0  0  0  # atno 13470 bound_to 12855
  110.9145  252.4498  328.7840 LP  0  0  0  0  0  0  0  0  0  0  0  0  # atno 13471 bound_to 12863
  111.4367  251.6802  327.4417 LP  0  0  0  0  0  0  0  0  0  0  0  0  # atno 13472 bound_to 12863
  106.5354  255.1177  321.6257 LP  0  0  0  0  0  0  0  0  0  0  0  0  # atno 13473 bound_to 12891
  103.2851  253.3831  321.4151 LP  0  0  0  0  0  0  0  0  0  0  0  0  # atno 13474 bound_to 12894
  104.0774  253.9835  322.8335 LP  0  0  0  0  0  0  0  0  0  0  0  0  # atno 13475 bound_to 12894
  100.2182  252.6737  321.6887 LP  0  0  0  0  0  0  0  0  0  0  0  0  # atno 13476 bound_to 12952
  109.4854  246.1892  336.9699 LP  0  0  0  0  0  0  0  0  0  0  0  0  # atno 13490 bound_to 13426
  108.5795  245.8921  335.6441 LP  0  0  0  0  0  0  0  0  0  0  0  0  # atno 13491 bound_to 13426
  107.5106  254.0890  335.2972 LP  0  0  0  0  0  0  0  0  0  0  0  0  # atno 13492 bound_to 1232
  109.2219  246.5009  319.8439 LP  0  0  0  0  0  0  0  0  0  0  0  0  # atno 13493 bound_to 5543
  109.6917  246.5237  318.1770 LP  0  0  0  0  0  0  0  0  0  0  0  0  # atno 13494 bound_to 5543
  106.9516  244.1020  321.2574 LP  0  0  0  0  0  0  0  0  0  0  0  0  # atno 13495 bound_to 5545
  106.4769  243.7256  319.7410 LP  0  0  0  0  0  0  0  0  0  0  0  0  # atno 13496 bound_to 5545
  118.2315  249.7165  330.4370 LP  0  0  0  0  0  0  0  0  0  0  0  0  # atno 13497 bound_to 3502
  117.9345  249.3475  328.7710 LP  0  0  0  0  0  0  0  0  0  0  0  0  # atno 13498 bound_to 3502
  119.2859  252.4334  327.9149 LP  0  0  0  0  0  0  0  0  0  0  0  0  # atno 13499 bound_to 3542
  123.2295  250.8207  328.0945 LP  0  0  0  0  0  0  0  0  0  0  0  0  # atno 13500 bound_to 3545
  121.9979  252.0300  327.9505 LP  0  0  0  0  0  0  0  0  0  0  0  0  # atno 13501 bound_to 3545
  121.5251  249.1065  327.5205 LP  0  0  0  0  0  0  0  0  0  0  0  0  # atno 13502 bound_to 3563
  123.1715  247.5939  327.3338 LP  0  0  0  0  0  0  0  0  0  0  0  0  # atno 13503 bound_to 3592
  117.1101  244.5146  318.3682 LP  0  0  0  0  0  0  0  0  0  0  0  0  # atno 13505 bound_to 8400
  118.1556  243.1348  318.4231 LP  0  0  0  0  0  0  0  0  0  0  0  0  # atno 13506 bound_to 8400
  115.2426  243.2216  319.0801 LP  0  0  0  0  0  0  0  0  0  0  0  0  # atno 13507 bound_to 8423
  114.8230  246.5439  318.4036 LP  0  0  0  0  0  0  0  0  0  0  0  0  # atno 13508 bound_to 8445
  112.6824  249.4773  316.7280 LP  0  0  0  0  0  0  0  0  0  0  0  0  # atno 13509 bound_to 8448
  113.9403  248.2951  316.8703 LP  0  0  0  0  0  0  0  0  0  0  0  0  # atno 13510 bound_to 8448
  116.2310  246.7227  317.8758 LP  0  0  0  0  0  0  0  0  0  0  0  0  # atno 13511 bound_to 8940
  115.1188  247.0710  316.5946 LP  0  0  0  0  0  0  0  0  0  0  0  0  # atno 13512 bound_to 8940
  117.8018  247.8778  316.8478 LP  0  0  0  0  0  0  0  0  0  0  0  0  # atno 13513 bound_to 8972
  120.6265  247.4966  316.6467 LP  0  0  0  0  0  0  0  0  0  0  0  0  # atno 13514 bound_to 8975
  121.6162  246.1001  316.3818 LP  0  0  0  0  0  0  0  0  0  0  0  0  # atno 13515 bound_to 8975
  119.3777  245.2517  318.8073 LP  0  0  0  0  0  0  0  0  0  0  0  0  # atno 13516 bound_to 8992
  120.5680  242.4027  317.5482 LP  0  0  0  0  0  0  0  0  0  0  0  0  # atno 13517 bound_to 8995
  122.2466  241.9758  317.5608 LP  0  0  0  0  0  0  0  0  0  0  0  0  # atno 13518 bound_to 8995
  122.4878  243.1968  319.2285 LP  0  0  0  0  0  0  0  0  0  0  0  0  # atno 13519 bound_to 9016
  120.9607  242.9987  322.3627 LP  0  0  0  0  0  0  0  0  0  0  0  0  # atno 13520 bound_to 9019
  122.0375  242.2103  323.4667 LP  0  0  0  0  0  0  0  0  0  0  0  0  # atno 13521 bound_to 9019
  121.9227  240.8094  322.0705 LP  0  0  0  0  0  0  0  0  0  0  0  0  # atno 13522 bound_to 9062
  121.8585  240.3853  324.9354 LP  0  0  0  0  0  0  0  0  0  0  0  0  # atno 13523 bound_to 9100
  112.3577  243.7013  317.3817 LP  0  0  0  0  0  0  0  0  0  0  0  0  # atno 13528 bound_to 8426
  111.8455  245.3368  317.1317 LP  0  0  0  0  0  0  0  0  0  0  0  0  # atno 13529 bound_to 8426
  115.2428  239.8218  316.2261 LP  0  0  0  0  0  0  0  0  0  0  0  0  # atno 13530 bound_to 8363
  114.8625  239.6519  317.9073 LP  0  0  0  0  0  0  0  0  0  0  0  0  # atno 13531 bound_to 8363
  110.3592  247.2890  318.1256 LP  0  0  0  0  0  0  0  0  0  0  0  0  # atno 13532 bound_to 8476
  114.2753  239.1877  321.3282 LP  0  0  0  0  0  0  0  0  0  0  0  0  # atno 13533 bound_to 9073
  114.0384  239.7382  322.8473 LP  0  0  0  0  0  0  0  0  0  0  0  0  # atno 13534 bound_to 9073
  114.6175  248.4678  315.7219 LP  0  0  0  0  0  0  0  0  0  0  0  0  # atno 13535 bound_to 8937
  118.9653  244.1791  313.9053 LP  0  0  0  0  0  0  0  0  0  0  0  0  # atno 13536 bound_to 8977
  120.0679  244.8356  314.9152 LP  0  0  0  0  0  0  0  0  0  0  0  0  # atno 13537 bound_to 8977
  124.3527  245.8307  317.6800 LP  0  0  0  0  0  0  0  0  0  0  0  0  # atno 13538 bound_to 4885
  124.4920  247.2283  318.5130 LP  0  0  0  0  0  0  0  0  0  0  0  0  # atno 13539 bound_to 4885
  108.1724  244.3525  319.1459 LP  0  0  0  0  0  0  0  0  0  0  0  0  # atno 13540 bound_to 5565
  110.9567  244.1298  315.6820 LP  0  0  0  0  0  0  0  0  0  0  0  0  # atno 13541 bound_to 5598
  110.4444  239.0034  318.6385 LP  0  0  0  0  0  0  0  0  0  0  0  0  # atno 13542 bound_to 5639
  111.6020  239.8225  317.6440 LP  0  0  0  0  0  0  0  0  0  0  0  0  # atno 13543 bound_to 5639
  111.3403  238.1959  321.7987 LP  0  0  0  0  0  0  0  0  0  0  0  0  # atno 13544 bound_to 8319
  110.5714  238.8801  320.5310 LP  0  0  0  0  0  0  0  0  0  0  0  0  # atno 13545 bound_to 8319
  113.5278  237.3265  328.9705 LP  0  0  0  0  0  0  0  0  0  0  0  0  # atno 13548 bound_to 9180
  113.4238  238.8331  328.1224 LP  0  0  0  0  0  0  0  0  0  0  0  0  # atno 13549 bound_to 9180
  111.8859  240.9236  315.2693 LP  0  0  0  0  0  0  0  0  0  0  0  0  # atno 13552 bound_to 5636

> <Gold.Score>
     Fitness  S(hb_ext) S(vdw_ext)  S(hb_int)    S(int)      intcor
     38.56       4.95      35.86       0.00     -15.69      -0.77

> <Gold.Goldscore.Fitness>
38.5643

> <Gold.Goldscore.Internal.Vdw>
-14.4453

> <Gold.Goldscore.Internal.Torsion>
-2.0116

> <Gold.Goldscore.External.Vdw>
35.8586

> <Gold.Goldscore.Internal.HBond>
0.0000

> <Gold.Goldscore.External.HBond>
4.9503

> <Gold.Goldscore.Internal.Correction>
-0.7653

> <Gold.Goldscore.Hbonds>
donor molecule, donor type, donor heavy atom, donor atom, acceptor molecule, acceptor atom, score
      L1  H     8    22       P1  8992  0.83

> <Gold.Goldscore.Internal.Vdw.Weighted>
-14.4453

> <Gold.Goldscore.Internal.Torsion.Weighted>
-2.0116

> <Gold.Goldscore.External.Vdw.Weighted>
49.3056

> <Gold.Goldscore.Internal.HBond.Weighted>
0.0000

> <Gold.Goldscore.External.HBond.Weighted>
4.9503

> <Gold.Goldscore.Internal.Correction.Weighted>
-0.7653

> <Gold.Rescore>
     Score     S(PLP)   S(hbond)     S(cho)   S(metal)  DE(clash)   DE(tors)     intcor
     15.60     -26.17       0.77       0.00       0.00      10.23       1.32       ----

> <Gold.PLP.Fitness>
15.5968

> <Gold.PLP.PLP>
-26.1713

> <Gold.PLP.part.hbond>
-4.0000

> <Gold.PLP.part.metal>
0.0000

> <Gold.PLP.part.buried>
26.4877

> <Gold.PLP.part.nonpolar>
-51.7462

> <Gold.PLP.part.repulsive>
0.6044

> <Gold.PLP.ligand.clash>
10.2307

> <Gold.PLP.ligand.torsion>
1.3238

> <Gold.PLP.Chemscore.Hbond>
0.7680

> <Gold.PLP.Chemscore.CHOScore>
0.0000

> <Gold.PLP.Chemscore.Metal>
0.0000

> <Gold.Chemscore.Hbonds>
donor molecule, donor type, donor heavy atom, donor atom, acceptor molecule, acceptor atom, score
      L1  H     8    22       P1  8992  1.00
      P1  M 13327 13327       L1    11  0.54

> <Gold.PLP.Chemscore.Internal.Correction>
   9.000000E+99

#       Name:                CT1002167954
#       Creating user name   hitesit
#       Creation time:       Sun Apr 16 22:52:07 2023


#       File generated by GOLD software.
#

@<TRIPOS>MOLECULE
CT1002167954|ligand_prepared|mol2|1|dock7
    29    30     1
SMALL
NO_CHARGES


@<TRIPOS>ATOM
      1 C1         113.8159 243.4990 323.5119 C.3            1 RES1               0.0000
      2 C2         113.4905 242.6146 324.7328 C.ar           1 RES1               0.0000
      3 C3         112.8082 244.6447 323.5320 C.2            1 RES1               0.0000
      4 C4         115.2650 243.9421 323.6800 C.2            1 RES1               0.0000
      5 C5         113.6955 242.7628 322.1572 C.3            1 RES1               0.0000
      6 C6         113.7049 243.0843 326.0252 C.ar           1 RES1               0.0000
      7 C7         112.9740 241.3304 324.5830 C.ar           1 RES1               0.0000
      8 N8         113.2582 245.8754 323.9096 N.am           1 RES1               0.0000
      9 O9         111.6282 244.4626 323.2588 O.2            1 RES1               0.0000
     10 N10        115.5097 245.2755 323.8799 N.am           1 RES1               0.0000
     11 O11        116.1959 243.1464 323.6579 O.2            1 RES1               0.0000
     12 C12        114.1065 243.6075 320.9616 C.3            1 RES1               0.0000
     13 C13        113.4108 242.2996 327.1280 C.ar           1 RES1               0.0000
     14 C14        112.6807 240.5473 325.6873 C.ar           1 RES1               0.0000
     15 C15        114.5698 246.2580 324.0330 C.2            1 RES1               0.0000
     16 C16        112.8982 241.0310 326.9599 C.ar           1 RES1               0.0000
     17 O17        114.8667 247.4265 324.2646 O.2            1 RES1               0.0000
     18 H18        114.3235 241.8638 322.1870 H              1 RES1               0.0000
     19 H19        112.6556 242.4410 322.0214 H              1 RES1               0.0000
     20 H20        114.1100 244.0792 326.1771 H              1 RES1               0.0000
     21 H21        112.7958 240.9287 323.5913 H              1 RES1               0.0000
     22 H22        112.5546 246.5761 324.1199 H              1 RES1               0.0000
     23 H23        116.4827 245.5623 323.9179 H              1 RES1               0.0000
     24 H24        114.0031 243.0435 320.0370 H              1 RES1               0.0000
     25 H25        113.4857 244.4979 320.8867 H              1 RES1               0.0000
     26 H26        115.1437 243.9241 321.0513 H              1 RES1               0.0000
     27 H27        113.5850 242.6844 328.1274 H              1 RES1               0.0000
     28 H28        112.2780 239.5492 325.5502 H              1 RES1               0.0000
     29 H29        112.6675 240.4166 327.8239 H              1 RES1               0.0000
@<TRIPOS>BOND
    1    1    2 1     
    2    1    3 1     
    3    1    4 1     
    4    1    5 1     
    5    2    6 ar    
    6    2    7 ar    
    7    3    8 1     
    8    3    9 2     
    9    4   10 1     
   10    4   11 2     
   11    5   12 1     
   12    5   18 1     
   13    5   19 1     
   14    6   13 ar    
   15    6   20 1     
   16    7   14 ar    
   17    7   21 1     
   18    8   15 1     
   19    8   22 1     
   20   10   15 1     
   21   10   23 1     
   22   12   24 1     
   23   12   25 1     
   24   12   26 1     
   25   13   16 ar    
   26   13   27 1     
   27   14   16 ar    
   28   14   28 1     
   29   15   17 2     
   30   16   29 1     
@<TRIPOS>SUBSTRUCTURE
      1 RES1           1
@<TRIPOS>SET
DONOR_HYDROGENS      STATIC     ATOMS    <user>   **** ""
2 22 23
ATOM$RED        STATIC     ATOMS    COLORGROUP SYSTEM
2 22 23
@<TRIPOS>COMMENT
> <Gold.Version>
2022.3.0

> <Gold.Id.Protein>
unknown|4uch_clean|pdb

> <Gold.Protein.RotatedTorsions>
[ 1282 1268 1269 1270 ] final    7.59 input   42.93 | X-H torsion
[ 12864 12852 12853 12854 ] final  111.74 input  102.46 | X-H torsion
[ 12872 12863 12862 12860 ] final    9.21 input   59.97 | X-H torsion
[ 12900 12891 12892 12893 ] final -146.75 input   33.49 | X-H torsion
[ 12960 12952 12953 12954 ] final   17.03 input  127.22 | X-H torsion
[ 13446 13426 13425 13421 ] final  -79.88 input   59.98 | X-H torsion
[ 1244 1232 1233 1234 ] final -145.20 input  119.89 | X-H torsion
[ 5550 5545 5544 5541 ] final -170.11 input   60.01 | X-H torsion
[ 3548 3542 3543 3544 ] final  100.48 input   78.91 | X-H torsion
[ 3570 3563 3564 3565 ] final  146.72 input  104.01 | X-H torsion
[ 3596 3592 3593 3594 ] final   88.63 input   81.17 | X-H torsion
[ 8428 8423 8424 8425 ] final -135.38 input   41.93 | X-H torsion
[ 8452 8445 8446 8447 ] final -122.20 input   98.48 | X-H torsion
[ 8978 8972 8973 8974 ] final -124.21 input   32.89 | X-H torsion
[ 8996 8992 8993 8994 ] final -143.53 input   45.98 | X-H torsion
[ 9030 9016 9017 9018 ] final -128.21 input   38.77 | X-H torsion
[ 9074 9062 9063 9064 ] final -106.23 input   99.93 | X-H torsion
[ 9108 9100 9101 9102 ] final  144.64 input   97.82 | X-H torsion
[ 8482 8476 8477 8478 ] final  -16.13 input   55.16 | X-H torsion
[ 9082 9073 9072 9070 ] final  -21.83 input   60.02 | X-H torsion
[ 8948 8937 8938 8939 ] final   42.67 input   49.52 | X-H torsion
[ 8982 8977 8976 8973 ] final   83.89 input   60.00 | X-H torsion
[ 4890 4885 4884 4881 ] final    9.57 input   59.99 | X-H torsion
[ 5574 5565 5566 5567 ] final -154.39 input   50.85 | X-H torsion
[ 5606 5598 5599 5600 ] final   14.33 input  117.92 | X-H torsion
[ 8328 8319 8318 8316 ] final -167.25 input   59.98 | X-H torsion
[ 5644 5636 5637 5638 ] final  103.48 input   69.86 | X-H torsion
[ 13451 13428 13427 13425 ] final  -21.58 input   60.01 | X-H torsion
[ 8508 8500 8501 8502 ] final   43.02 input   75.08 | X-H torsion
[ 4906 4901 4902 4903 ] final -174.08 input   29.84 | X-H torsion
[ 13460 1235 1234 1233 ] final   69.91 input    0.00 | X-H torsion
[ 13464 8503 8502 8501 ] final  -51.19 input    0.00 | X-H torsion
[ 13466 12822 12821 12820 ] final  152.65 input   -0.00 | X-H torsion
[ 13469 12855 12854 12853 ] final  116.12 input   -0.00 | X-H torsion
[ 13474 12894 12893 12892 ] final  142.47 input    0.00 | X-H torsion
[ 13493 5543 5542 5541 ] final  -85.29 input    0.00 | X-H torsion
[ 13497 3502 3501 3500 ] final   -8.31 input   -0.00 | X-H torsion
[ 13500 3545 3544 3543 ] final  -69.16 input    0.00 | X-H torsion
[ 13505 8400 8399 8398 ] final   22.15 input   -0.00 | X-H torsion
[ 13509 8448 8447 8446 ] final   82.69 input    0.00 | X-H torsion
[ 13511 8940 8939 8938 ] final  -68.18 input    0.00 | X-H torsion
[ 13514 8975 8974 8973 ] final  139.34 input   -0.00 | X-H torsion
[ 13517 8995 8994 8993 ] final -145.29 input    0.00 | X-H torsion
[ 13520 9019 9018 9017 ] final  -37.68 input   -0.00 | X-H torsion
[ 13528 8426 8425 8424 ] final  128.08 input    0.00 | X-H torsion
[ 13530 8363 8362 8361 ] final   86.38 input    0.00 | X-H torsion
[ 13542 5639 5638 5637 ] final  133.35 input    0.00 | X-H torsion
[ 13548 9180 9179 9178 ] final  166.16 input   -0.00 | X-H torsion

> <Gold.Protein.ActiveResidues>
 TRP311  MET341  HIS342  TRP414  ALA417  ARG419  CYS420  VAL421  GLY422  ARG423 
 SER462  ALA463  SER482  GLN483  LEU484  ILE485  ARG486  TRP566  TYR567  LEU569 
 PRO570  ALA571  VAL572  SER573  ASN574  MET575  PHE589  SER590  GLY591  TRP592 
 TYR593  MET594  GLU597  ILE598  ARG601  ASP602  ARG608  TRP683  PHE696  GLU710 
 TYR711  GLN712  PRO713  ASP714  HEM750  H4B760 

> <Gold.Protein.RotatedAtoms>
  107.3992  252.9451  335.6208 H   0  0  0  0  0  0  0  0  0  0  0  0  # atno 1244 bound_to 1232
  105.9361  254.9932  333.3742 H   0  0  0  0  0  0  0  0  0  0  0  0  # atno 1282 bound_to 1268
  119.3000  252.4508  327.9159 H   0  0  0  0  0  0  0  0  0  0  0  0  # atno 3548 bound_to 3542
  120.7441  248.6796  328.9575 H   0  0  0  0  0  0  0  0  0  0  0  0  # atno 3570 bound_to 3563
  122.6789  248.4614  326.5298 H   0  0  0  0  0  0  0  0  0  0  0  0  # atno 3596 bound_to 3592
  124.7902  245.7679  317.4780 H   0  0  0  0  0  0  0  0  0  0  0  0  # atno 4890 bound_to 4885
  122.9677  247.0918  314.0545 H   0  0  0  0  0  0  0  0  0  0  0  0  # atno 4906 bound_to 4901
  105.7819  244.0976  321.4218 H   0  0  0  0  0  0  0  0  0  0  0  0  # atno 5550 bound_to 5545
  108.2683  244.9851  318.8423 H   0  0  0  0  0  0  0  0  0  0  0  0  # atno 5574 bound_to 5565
  110.6378  242.5984  316.3138 H   0  0  0  0  0  0  0  0  0  0  0  0  # atno 5606 bound_to 5598
  111.9280  240.8891  315.1914 H   0  0  0  0  0  0  0  0  0  0  0  0  # atno 5644 bound_to 5636
  111.8521  239.5222  320.7614 H   0  0  0  0  0  0  0  0  0  0  0  0  # atno 8328 bound_to 8319
  115.9696  242.8863  318.4780 H   0  0  0  0  0  0  0  0  0  0  0  0  # atno 8428 bound_to 8423
  113.8333  245.1907  318.4199 H   0  0  0  0  0  0  0  0  0  0  0  0  # atno 8452 bound_to 8445
  110.7633  248.1479  318.4041 H   0  0  0  0  0  0  0  0  0  0  0  0  # atno 8482 bound_to 8476
  109.7177  249.5654  318.5023 H   0  0  0  0  0  0  0  0  0  0  0  0  # atno 8508 bound_to 8500
  114.5961  248.8716  316.0912 H   0  0  0  0  0  0  0  0  0  0  0  0  # atno 8948 bound_to 8937
  117.3697  247.6896  316.6145 H   0  0  0  0  0  0  0  0  0  0  0  0  # atno 8978 bound_to 8972
  119.9767  244.4372  314.7959 H   0  0  0  0  0  0  0  0  0  0  0  0  # atno 8982 bound_to 8977
  119.9519  245.7054  317.5486 H   0  0  0  0  0  0  0  0  0  0  0  0  # atno 8996 bound_to 8992
  121.5830  243.1842  319.2392 H   0  0  0  0  0  0  0  0  0  0  0  0  # atno 9030 bound_to 9016
  121.1992  240.9245  321.7412 H   0  0  0  0  0  0  0  0  0  0  0  0  # atno 9074 bound_to 9062
  113.9453  239.3048  323.1178 H   0  0  0  0  0  0  0  0  0  0  0  0  # atno 9082 bound_to 9073
  121.2046  241.3213  325.4237 H   0  0  0  0  0  0  0  0  0  0  0  0  # atno 9108 bound_to 9100
  109.1821  256.8525  324.7012 H   0  0  0  0  0  0  0  0  0  0  0  0  # atno 12864 bound_to 12852
  110.8497  251.1031  327.4819 H   0  0  0  0  0  0  0  0  0  0  0  0  # atno 12872 bound_to 12863
  106.5140  256.2452  322.5877 H   0  0  0  0  0  0  0  0  0  0  0  0  # atno 12900 bound_to 12891
  100.1432  253.3794  320.8377 H   0  0  0  0  0  0  0  0  0  0  0  0  # atno 12960 bound_to 12952
  108.4422  245.9350  335.6591 H   0  0  0  0  0  0  0  0  0  0  0  0  # atno 13446 bound_to 13426
  110.0527  250.0046  335.8520 H   0  0  0  0  0  0  0  0  0  0  0  0  # atno 13451 bound_to 13428
  108.3823  253.4946  330.8974 LP  0  0  0  0  0  0  0  0  0  0  0  0  # atno 13460 bound_to 1235
  108.9488  254.9196  331.7026 LP  0  0  0  0  0  0  0  0  0  0  0  0  # atno 13461 bound_to 1235
  106.7514  254.0927  332.1119 LP  0  0  0  0  0  0  0  0  0  0  0  0  # atno 13462 bound_to 1268
  106.3311  252.6551  318.6217 LP  0  0  0  0  0  0  0  0  0  0  0  0  # atno 13464 bound_to 8503
  107.2119  252.9213  320.0890 LP  0  0  0  0  0  0  0  0  0  0  0  0  # atno 13465 bound_to 8503
  109.4814  255.1992  321.6974 LP  0  0  0  0  0  0  0  0  0  0  0  0  # atno 13466 bound_to 12822
  110.1698  256.5614  320.8785 LP  0  0  0  0  0  0  0  0  0  0  0  0  # atno 13467 bound_to 12822
  109.5408  256.8278  322.9936 LP  0  0  0  0  0  0  0  0  0  0  0  0  # atno 13468 bound_to 12852
  106.8202  258.1254  321.8756 LP  0  0  0  0  0  0  0  0  0  0  0  0  # atno 13469 bound_to 12855
  106.5151  258.1297  323.5806 LP  0  0  0  0  0  0  0  0  0  0  0  0  # atno 13470 bound_to 12855
  110.1684  251.7067  328.8307 LP  0  0  0  0  0  0  0  0  0  0  0  0  # atno 13471 bound_to 12863
  111.4721  252.4381  328.1734 LP  0  0  0  0  0  0  0  0  0  0  0  0  # atno 13472 bound_to 12863
  105.9597  254.6452  322.1566 LP  0  0  0  0  0  0  0  0  0  0  0  0  # atno 13473 bound_to 12891
  102.9245  253.7508  322.5399 LP  0  0  0  0  0  0  0  0  0  0  0  0  # atno 13474 bound_to 12894
  104.4381  253.6159  321.7087 LP  0  0  0  0  0  0  0  0  0  0  0  0  # atno 13475 bound_to 12894
  101.5188  252.4898  321.4485 LP  0  0  0  0  0  0  0  0  0  0  0  0  # atno 13476 bound_to 12952
  107.9906  246.6086  337.0697 LP  0  0  0  0  0  0  0  0  0  0  0  0  # atno 13490 bound_to 13426
  109.5355  246.1282  336.8486 LP  0  0  0  0  0  0  0  0  0  0  0  0  # atno 13491 bound_to 13426
  106.3001  254.1333  334.9545 LP  0  0  0  0  0  0  0  0  0  0  0  0  # atno 13492 bound_to 1232
  109.4063  246.8646  318.2210 LP  0  0  0  0  0  0  0  0  0  0  0  0  # atno 13493 bound_to 5543
  109.5072  246.1599  319.8000 LP  0  0  0  0  0  0  0  0  0  0  0  0  # atno 13494 bound_to 5543
  107.2055  243.9669  320.6439 LP  0  0  0  0  0  0  0  0  0  0  0  0  # atno 13495 bound_to 5545
  105.8063  243.7227  319.8382 LP  0  0  0  0  0  0  0  0  0  0  0  0  # atno 13496 bound_to 5545
  117.5808  249.8075  330.2535 LP  0  0  0  0  0  0  0  0  0  0  0  0  # atno 13497 bound_to 3502
  118.5852  249.2565  328.9544 LP  0  0  0  0  0  0  0  0  0  0  0  0  # atno 13498 bound_to 3502
  118.9139  251.2754  329.1473 LP  0  0  0  0  0  0  0  0  0  0  0  0  # atno 13499 bound_to 3542
  122.6514  251.3724  327.1589 LP  0  0  0  0  0  0  0  0  0  0  0  0  # atno 13500 bound_to 3545
  122.5759  251.4783  328.8861 LP  0  0  0  0  0  0  0  0  0  0  0  0  # atno 13501 bound_to 3545
  121.5917  249.5242  327.6781 LP  0  0  0  0  0  0  0  0  0  0  0  0  # atno 13502 bound_to 3563
  123.9435  248.3842  327.7329 LP  0  0  0  0  0  0  0  0  0  0  0  0  # atno 13503 bound_to 3592
  118.1573  243.1401  318.4751 LP  0  0  0  0  0  0  0  0  0  0  0  0  # atno 13505 bound_to 8400
  117.1085  244.5093  318.3161 LP  0  0  0  0  0  0  0  0  0  0  0  0  # atno 13506 bound_to 8400
  114.2672  242.5474  318.3018 LP  0  0  0  0  0  0  0  0  0  0  0  0  # atno 13507 bound_to 8423
  114.6897  246.6380  317.9431 LP  0  0  0  0  0  0  0  0  0  0  0  0  # atno 13508 bound_to 8445
  113.5332  248.2112  316.3041 LP  0  0  0  0  0  0  0  0  0  0  0  0  # atno 13509 bound_to 8448
  113.0895  249.5612  317.2943 LP  0  0  0  0  0  0  0  0  0  0  0  0  # atno 13510 bound_to 8448
  115.6992  247.5260  317.8299 LP  0  0  0  0  0  0  0  0  0  0  0  0  # atno 13511 bound_to 8940
  115.6506  246.2678  316.6405 LP  0  0  0  0  0  0  0  0  0  0  0  0  # atno 13512 bound_to 8940
  118.7169  247.5867  315.5072 LP  0  0  0  0  0  0  0  0  0  0  0  0  # atno 13513 bound_to 8972
  121.4527  246.9415  317.3015 LP  0  0  0  0  0  0  0  0  0  0  0  0  # atno 13514 bound_to 8975
  120.7900  246.6553  315.7270 LP  0  0  0  0  0  0  0  0  0  0  0  0  # atno 13515 bound_to 8975
  119.3718  244.3508  318.4888 LP  0  0  0  0  0  0  0  0  0  0  0  0  # atno 13516 bound_to 8992
  121.1264  241.5836  318.1060 LP  0  0  0  0  0  0  0  0  0  0  0  0  # atno 13517 bound_to 8995
  121.6883  242.7950  317.0030 LP  0  0  0  0  0  0  0  0  0  0  0  0  # atno 13518 bound_to 8995
  122.5229  243.5203  320.6721 LP  0  0  0  0  0  0  0  0  0  0  0  0  # atno 13519 bound_to 9016
  122.2136  242.9527  322.5709 LP  0  0  0  0  0  0  0  0  0  0  0  0  # atno 13520 bound_to 9019
  120.7846  242.2562  323.2585 LP  0  0  0  0  0  0  0  0  0  0  0  0  # atno 13521 bound_to 9019
  121.8850  239.3177  321.7125 LP  0  0  0  0  0  0  0  0  0  0  0  0  # atno 13522 bound_to 9062
  120.9152  239.6323  325.0824 LP  0  0  0  0  0  0  0  0  0  0  0  0  # atno 13523 bound_to 9100
  111.8530  244.5847  318.0837 LP  0  0  0  0  0  0  0  0  0  0  0  0  # atno 13528 bound_to 8426
  112.3501  244.4534  316.4297 LP  0  0  0  0  0  0  0  0  0  0  0  0  # atno 13529 bound_to 8426
  114.9475  239.0544  317.5894 LP  0  0  0  0  0  0  0  0  0  0  0  0  # atno 13530 bound_to 8363
  115.1578  240.4193  316.5440 LP  0  0  0  0  0  0  0  0  0  0  0  0  # atno 13531 bound_to 8363
  111.5247  246.9650  317.3698 LP  0  0  0  0  0  0  0  0  0  0  0  0  # atno 13532 bound_to 8476
  114.0339  238.1047  322.0224 LP  0  0  0  0  0  0  0  0  0  0  0  0  # atno 13533 bound_to 9073
  114.2766  239.6528  321.5631 LP  0  0  0  0  0  0  0  0  0  0  0  0  # atno 13534 bound_to 9073
  114.9574  249.5063  314.5020 LP  0  0  0  0  0  0  0  0  0  0  0  0  # atno 13535 bound_to 8937
  119.3264  245.8758  314.4012 LP  0  0  0  0  0  0  0  0  0  0  0  0  # atno 13536 bound_to 8977
  118.7352  244.5020  313.7458 LP  0  0  0  0  0  0  0  0  0  0  0  0  # atno 13537 bound_to 8977
  124.1342  246.9052  318.4390 LP  0  0  0  0  0  0  0  0  0  0  0  0  # atno 13538 bound_to 4885
  125.6886  247.0373  317.9564 LP  0  0  0  0  0  0  0  0  0  0  0  0  # atno 13539 bound_to 4885
  107.4998  243.7810  317.8355 LP  0  0  0  0  0  0  0  0  0  0  0  0  # atno 13540 bound_to 5565
  110.5162  244.2129  315.6577 LP  0  0  0  0  0  0  0  0  0  0  0  0  # atno 13541 bound_to 5598
  110.2919  239.7716  318.4356 LP  0  0  0  0  0  0  0  0  0  0  0  0  # atno 13542 bound_to 5639
  111.7545  239.0543  317.8470 LP  0  0  0  0  0  0  0  0  0  0  0  0  # atno 13543 bound_to 5639
  111.6134  238.3338  321.8476 LP  0  0  0  0  0  0  0  0  0  0  0  0  # atno 13544 bound_to 8319
  110.4812  238.6463  320.7131 LP  0  0  0  0  0  0  0  0  0  0  0  0  # atno 13545 bound_to 8319
  113.3771  237.3766  328.0507 LP  0  0  0  0  0  0  0  0  0  0  0  0  # atno 13548 bound_to 9180
  113.5745  238.7830  329.0422 LP  0  0  0  0  0  0  0  0  0  0  0  0  # atno 13549 bound_to 9180
  110.2184  241.0889  314.8783 LP  0  0  0  0  0  0  0  0  0  0  0  0  # atno 13552 bound_to 5636

> <Gold.Score>
     Fitness  S(hb_ext) S(vdw_ext)  S(hb_int)    S(int)      intcor
     36.73       0.00      26.72       0.00      -0.01      -0.76

> <Gold.Goldscore.Fitness>
36.7285

> <Gold.Goldscore.Internal.Vdw>
-0.3802

> <Gold.Goldscore.Internal.Torsion>
-0.3904

> <Gold.Goldscore.External.Vdw>
26.7204

> <Gold.Goldscore.Internal.HBond>
0.0000

> <Gold.Goldscore.External.HBond>
0.0000

> <Gold.Goldscore.Internal.Correction>
-0.7585

> <Gold.Goldscore.Internal.Vdw.Weighted>
-0.3802

> <Gold.Goldscore.Internal.Torsion.Weighted>
-0.3904

> <Gold.Goldscore.External.Vdw.Weighted>
36.7406

> <Gold.Goldscore.Internal.HBond.Weighted>
0.0000

> <Gold.Goldscore.External.HBond.Weighted>
0.0000

> <Gold.Goldscore.Internal.Correction.Weighted>
-0.7585

> <Gold.Rescore>
     Score     S(PLP)   S(hbond)     S(cho)   S(metal)  DE(clash)   DE(tors)     intcor
     21.65     -22.07       0.00       0.00       0.00       0.00       0.21       ----

> <Gold.PLP.Fitness>
21.6519

> <Gold.PLP.PLP>
-22.0666

> <Gold.PLP.part.hbond>
-1.0000

> <Gold.PLP.part.metal>
0.0000

> <Gold.PLP.part.buried>
4.0514

> <Gold.PLP.part.nonpolar>
-32.2339

> <Gold.PLP.part.repulsive>
5.2881

> <Gold.PLP.ligand.clash>
0.0000

> <Gold.PLP.ligand.torsion>
0.2074

> <Gold.PLP.Chemscore.Hbond>
0.0000

> <Gold.PLP.Chemscore.CHOScore>
0.0000

> <Gold.PLP.Chemscore.Metal>
0.0000

> <Gold.PLP.Chemscore.Internal.Correction>
   9.000000E+99

#       Name:                CT1002167954
#       Creating user name   hitesit
#       Creation time:       Sun Apr 16 22:52:05 2023


#       File generated by GOLD software.
#

@<TRIPOS>MOLECULE
CT1002167954|ligand_prepared|mol2|1|dock4
    29    30     1
SMALL
NO_CHARGES


@<TRIPOS>ATOM
      1 C1         111.9615 242.2134 325.6873 C.3            1 RES1               0.0000
      2 C2         111.7757 243.6006 325.0392 C.ar           1 RES1               0.0000
      3 C3         110.5597 241.6535 325.9102 C.2            1 RES1               0.0000
      4 C4         112.8096 241.3991 324.7166 C.2            1 RES1               0.0000
      5 C5         112.6968 242.2526 327.0472 C.3            1 RES1               0.0000
      6 C6         112.8167 244.5242 325.0313 C.ar           1 RES1               0.0000
      7 C7         110.5723 243.9693 324.4439 C.ar           1 RES1               0.0000
      8 N8         110.1401 240.6532 325.0836 N.am           1 RES1               0.0000
      9 O9         109.8191 242.1096 326.7726 O.2            1 RES1               0.0000
     10 N10        112.2326 240.3102 324.1173 N.am           1 RES1               0.0000
     11 O11        113.9671 241.7003 324.4526 O.2            1 RES1               0.0000
     12 C12        112.6749 240.9285 327.7945 C.3            1 RES1               0.0000
     13 C13        112.6612 245.7702 324.4469 C.ar           1 RES1               0.0000
     14 C14        110.4188 245.2161 323.8603 C.ar           1 RES1               0.0000
     15 C15        110.9267 239.9183 324.2334 C.2            1 RES1               0.0000
     16 C16        111.4626 246.1169 323.8607 C.ar           1 RES1               0.0000
     17 O17        110.4674 238.9594 323.6198 O.2            1 RES1               0.0000
     18 H18        113.7403 242.5443 326.8761 H              1 RES1               0.0000
     19 H19        112.2328 243.0213 327.6775 H              1 RES1               0.0000
     20 H20        113.7665 244.2701 325.4899 H              1 RES1               0.0000
     21 H21        109.7371 243.2772 324.4328 H              1 RES1               0.0000
     22 H22        109.1497 240.4311 325.0990 H              1 RES1               0.0000
     23 H23        112.8320 239.7388 323.5305 H              1 RES1               0.0000
     24 H24        113.2043 241.0111 328.7413 H              1 RES1               0.0000
     25 H25        111.6526 240.6204 328.0036 H              1 RES1               0.0000
     26 H26        113.1512 240.1462 327.2070 H              1 RES1               0.0000
     27 H27        113.4853 246.4761 324.4511 H              1 RES1               0.0000
     28 H28        109.4735 245.4849 323.4007 H              1 RES1               0.0000
     29 H29        111.3412 247.0929 323.4027 H              1 RES1               0.0000
@<TRIPOS>BOND
    1    1    2 1     
    2    1    3 1     
    3    1    4 1     
    4    1    5 1     
    5    2    6 ar    
    6    2    7 ar    
    7    3    8 1     
    8    3    9 2     
    9    4   10 1     
   10    4   11 2     
   11    5   12 1     
   12    5   18 1     
   13    5   19 1     
   14    6   13 ar    
   15    6   20 1     
   16    7   14 ar    
   17    7   21 1     
   18    8   15 1     
   19    8   22 1     
   20   10   15 1     
   21   10   23 1     
   22   12   24 1     
   23   12   25 1     
   24   12   26 1     
   25   13   16 ar    
   26   13   27 1     
   27   14   16 ar    
   28   14   28 1     
   29   15   17 2     
   30   16   29 1     
@<TRIPOS>SUBSTRUCTURE
      1 RES1           1
@<TRIPOS>SET
DONOR_HYDROGENS      STATIC     ATOMS    <user>   **** ""
2 22 23
ATOM$RED        STATIC     ATOMS    COLORGROUP SYSTEM
2 22 23
@<TRIPOS>COMMENT
> <Gold.Version>
2022.3.0

> <Gold.Id.Protein>
unknown|4uch_clean|pdb

> <Gold.Protein.RotatedTorsions>
[ 1282 1268 1269 1270 ] final  137.55 input   42.93 | X-H torsion
[ 12864 12852 12853 12854 ] final  128.00 input  102.46 | X-H torsion
[ 12872 12863 12862 12860 ] final  158.61 input   59.97 | X-H torsion
[ 12900 12891 12892 12893 ] final -115.96 input   33.49 | X-H torsion
[ 12960 12952 12953 12954 ] final   -5.88 input  127.22 | X-H torsion
[ 13446 13426 13425 13421 ] final   81.71 input   59.98 | X-H torsion
[ 1244 1232 1233 1234 ] final  -30.01 input  119.89 | X-H torsion
[ 5550 5545 5544 5541 ] final   -1.86 input   60.01 | X-H torsion
[ 3548 3542 3543 3544 ] final -114.32 input   78.91 | X-H torsion
[ 3570 3563 3564 3565 ] final  -72.31 input  104.01 | X-H torsion
[ 3596 3592 3593 3594 ] final  174.56 input   81.17 | X-H torsion
[ 8428 8423 8424 8425 ] final   -3.71 input   41.93 | X-H torsion
[ 8452 8445 8446 8447 ] final -129.05 input   98.48 | X-H torsion
[ 8978 8972 8973 8974 ] final  -83.85 input   32.89 | X-H torsion
[ 8996 8992 8993 8994 ] final  149.48 input   45.98 | X-H torsion
[ 9030 9016 9017 9018 ] final  -44.67 input   38.77 | X-H torsion
[ 9074 9062 9063 9064 ] final   10.56 input   99.93 | X-H torsion
[ 9108 9100 9101 9102 ] final  133.51 input   97.82 | X-H torsion
[ 8482 8476 8477 8478 ] final -170.82 input   55.16 | X-H torsion
[ 9082 9073 9072 9070 ] final -162.71 input   60.02 | X-H torsion
[ 8948 8937 8938 8939 ] final  -83.75 input   49.52 | X-H torsion
[ 8982 8977 8976 8973 ] final  -68.85 input   60.00 | X-H torsion
[ 4890 4885 4884 4881 ] final   28.68 input   59.99 | X-H torsion
[ 5574 5565 5566 5567 ] final  175.93 input   50.85 | X-H torsion
[ 5606 5598 5599 5600 ] final -136.24 input  117.92 | X-H torsion
[ 8328 8319 8318 8316 ] final  126.46 input   59.98 | X-H torsion
[ 5644 5636 5637 5638 ] final   86.40 input   69.86 | X-H torsion
[ 13451 13428 13427 13425 ] final  114.44 input   60.01 | X-H torsion
[ 8508 8500 8501 8502 ] final  -84.55 input   75.08 | X-H torsion
[ 4906 4901 4902 4903 ] final  151.49 input   29.84 | X-H torsion
[ 13460 1235 1234 1233 ] final  -91.80 input    0.00 | X-H torsion
[ 13464 8503 8502 8501 ] final  -60.14 input    0.00 | X-H torsion
[ 13466 12822 12821 12820 ] final  -24.09 input   -0.00 | X-H torsion
[ 13469 12855 12854 12853 ] final   25.86 input   -0.00 | X-H torsion
[ 13474 12894 12893 12892 ] final   93.65 input    0.00 | X-H torsion
[ 13493 5543 5542 5541 ] final  168.35 input    0.00 | X-H torsion
[ 13497 3502 3501 3500 ] final   79.80 input   -0.00 | X-H torsion
[ 13500 3545 3544 3543 ] final -149.86 input    0.00 | X-H torsion
[ 13505 8400 8399 8398 ] final   93.67 input   -0.00 | X-H torsion
[ 13509 8448 8447 8446 ] final    8.60 input    0.00 | X-H torsion
[ 13511 8940 8939 8938 ] final   82.09 input    0.00 | X-H torsion
[ 13514 8975 8974 8973 ] final -105.04 input   -0.00 | X-H torsion
[ 13517 8995 8994 8993 ] final  -27.04 input    0.00 | X-H torsion
[ 13520 9019 9018 9017 ] final -114.28 input   -0.00 | X-H torsion
[ 13528 8426 8425 8424 ] final  151.33 input    0.00 | X-H torsion
[ 13530 8363 8362 8361 ] final  -55.51 input    0.00 | X-H torsion
[ 13542 5639 5638 5637 ] final  -76.46 input    0.00 | X-H torsion
[ 13548 9180 9179 9178 ] final   62.17 input   -0.00 | X-H torsion

> <Gold.Protein.ActiveResidues>
 TRP311  MET341  HIS342  TRP414  ALA417  ARG419  CYS420  VAL421  GLY422  ARG423 
 SER462  ALA463  SER482  GLN483  LEU484  ILE485  ARG486  TRP566  TYR567  LEU569 
 PRO570  ALA571  VAL572  SER573  ASN574  MET575  PHE589  SER590  GLY591  TRP592 
 TYR593  MET594  GLU597  ILE598  ARG601  ASP602  ARG608  TRP683  PHE696  GLU710 
 TYR711  GLN712  PRO713  ASP714  HEM750  H4B760 

> <Gold.Protein.RotatedAtoms>
  107.2019  254.3430  335.1075 H   0  0  0  0  0  0  0  0  0  0  0  0  # atno 1244 bound_to 1232
  106.0122  254.0470  332.0634 H   0  0  0  0  0  0  0  0  0  0  0  0  # atno 1282 bound_to 1268
  118.5118  251.2713  328.8141 H   0  0  0  0  0  0  0  0  0  0  0  0  # atno 3548 bound_to 3542
  121.5418  249.9027  328.1233 H   0  0  0  0  0  0  0  0  0  0  0  0  # atno 3570 bound_to 3563
  123.0769  247.5796  327.2466 H   0  0  0  0  0  0  0  0  0  0  0  0  # atno 3596 bound_to 3592
  125.0863  245.8369  317.4137 H   0  0  0  0  0  0  0  0  0  0  0  0  # atno 4890 bound_to 4885
  122.6073  246.7222  313.9735 H   0  0  0  0  0  0  0  0  0  0  0  0  # atno 4906 bound_to 4901
  106.5714  243.7386  319.7728 H   0  0  0  0  0  0  0  0  0  0  0  0  # atno 5550 bound_to 5545
  108.2445  244.6150  319.1019 H   0  0  0  0  0  0  0  0  0  0  0  0  # atno 5574 bound_to 5565
  110.0900  244.0995  315.7097 H   0  0  0  0  0  0  0  0  0  0  0  0  # atno 5606 bound_to 5598
  111.8485  240.9379  315.4379 H   0  0  0  0  0  0  0  0  0  0  0  0  # atno 5644 bound_to 5636
  112.1270  238.9470  321.5630 H   0  0  0  0  0  0  0  0  0  0  0  0  # atno 8328 bound_to 8319
  114.4165  242.9546  318.8695 H   0  0  0  0  0  0  0  0  0  0  0  0  # atno 8428 bound_to 8423
  113.8815  245.2006  318.5133 H   0  0  0  0  0  0  0  0  0  0  0  0  # atno 8452 bound_to 8445
  111.7999  247.2307  317.3855 H   0  0  0  0  0  0  0  0  0  0  0  0  # atno 8482 bound_to 8476
  109.3197  249.6736  316.9777 H   0  0  0  0  0  0  0  0  0  0  0  0  # atno 8508 bound_to 8500
  114.8882  248.7217  314.5423 H   0  0  0  0  0  0  0  0  0  0  0  0  # atno 8948 bound_to 8937
  117.8744  247.9057  316.8773 H   0  0  0  0  0  0  0  0  0  0  0  0  # atno 8978 bound_to 8972
  118.9420  245.7421  314.0622 H   0  0  0  0  0  0  0  0  0  0  0  0  # atno 8982 bound_to 8977
  119.6033  245.7898  318.4567 H   0  0  0  0  0  0  0  0  0  0  0  0  # atno 8996 bound_to 8992
  121.2661  243.4249  320.3436 H   0  0  0  0  0  0  0  0  0  0  0  0  # atno 9030 bound_to 9016
  122.3398  240.0113  322.1007 H   0  0  0  0  0  0  0  0  0  0  0  0  # atno 9074 bound_to 9062
  114.1078  238.2414  321.7194 H   0  0  0  0  0  0  0  0  0  0  0  0  # atno 9082 bound_to 9073
  121.0438  241.3199  325.4823 H   0  0  0  0  0  0  0  0  0  0  0  0  # atno 9108 bound_to 9100
  109.3327  256.6549  324.6998 H   0  0  0  0  0  0  0  0  0  0  0  0  # atno 12864 bound_to 12852
  111.1920  252.5177  328.5509 H   0  0  0  0  0  0  0  0  0  0  0  0  # atno 12872 bound_to 12863
  106.2288  256.1140  322.9365 H   0  0  0  0  0  0  0  0  0  0  0  0  # atno 12900 bound_to 12891
  100.3970  253.4841  320.6183 H   0  0  0  0  0  0  0  0  0  0  0  0  # atno 12960 bound_to 12952
  109.1382  246.4119  337.3029 H   0  0  0  0  0  0  0  0  0  0  0  0  # atno 13446 bound_to 13426
  108.7168  250.7548  336.6669 H   0  0  0  0  0  0  0  0  0  0  0  0  # atno 13451 bound_to 13428
  109.0889  254.7303  331.8450 LP  0  0  0  0  0  0  0  0  0  0  0  0  # atno 13460 bound_to 1235
  108.2422  253.6839  330.7550 LP  0  0  0  0  0  0  0  0  0  0  0  0  # atno 13461 bound_to 1235
  106.6783  255.0025  333.3722 LP  0  0  0  0  0  0  0  0  0  0  0  0  # atno 13462 bound_to 1268
  106.3982  252.7626  318.5743 LP  0  0  0  0  0  0  0  0  0  0  0  0  # atno 13464 bound_to 8503
  107.1448  252.8138  320.1364 LP  0  0  0  0  0  0  0  0  0  0  0  0  # atno 13465 bound_to 8503
  110.2144  256.5434  320.8890 LP  0  0  0  0  0  0  0  0  0  0  0  0  # atno 13466 bound_to 12822
  109.4367  255.2172  321.6868 LP  0  0  0  0  0  0  0  0  0  0  0  0  # atno 13467 bound_to 12822
  109.3924  257.0226  322.9950 LP  0  0  0  0  0  0  0  0  0  0  0  0  # atno 13468 bound_to 12852
  107.5187  258.1637  322.8843 LP  0  0  0  0  0  0  0  0  0  0  0  0  # atno 13469 bound_to 12855
  105.8166  258.0914  322.5720 LP  0  0  0  0  0  0  0  0  0  0  0  0  # atno 13470 bound_to 12855
  111.2181  251.3881  327.3799 LP  0  0  0  0  0  0  0  0  0  0  0  0  # atno 13471 bound_to 12863
  110.0777  251.3319  328.5474 LP  0  0  0  0  0  0  0  0  0  0  0  0  # atno 13472 bound_to 12863
  106.2384  254.7734  321.8159 LP  0  0  0  0  0  0  0  0  0  0  0  0  # atno 13473 bound_to 12891
  103.4927  253.9527  322.9255 LP  0  0  0  0  0  0  0  0  0  0  0  0  # atno 13474 bound_to 12894
  103.8699  253.4140  321.3231 LP  0  0  0  0  0  0  0  0  0  0  0  0  # atno 13475 bound_to 12894
  101.2713  252.3877  321.6624 LP  0  0  0  0  0  0  0  0  0  0  0  0  # atno 13476 bound_to 12952
  109.0865  245.8205  335.7880 LP  0  0  0  0  0  0  0  0  0  0  0  0  # atno 13490 bound_to 13426
  107.7384  246.4358  336.4740 LP  0  0  0  0  0  0  0  0  0  0  0  0  # atno 13491 bound_to 13426
  106.4909  252.7809  335.4510 LP  0  0  0  0  0  0  0  0  0  0  0  0  # atno 13492 bound_to 1232
  110.0074  245.8470  318.9459 LP  0  0  0  0  0  0  0  0  0  0  0  0  # atno 13493 bound_to 5543
  108.9062  247.1776  319.0750 LP  0  0  0  0  0  0  0  0  0  0  0  0  # atno 13494 bound_to 5543
  105.3380  243.9357  320.8163 LP  0  0  0  0  0  0  0  0  0  0  0  0  # atno 13495 bound_to 5545
  106.8789  244.1155  321.3260 LP  0  0  0  0  0  0  0  0  0  0  0  0  # atno 13496 bound_to 5545
  117.3832  249.5488  329.0940 LP  0  0  0  0  0  0  0  0  0  0  0  0  # atno 13497 bound_to 3502
  118.7828  249.5152  330.1139 LP  0  0  0  0  0  0  0  0  0  0  0  0  # atno 13498 bound_to 3502
  119.6895  252.4361  328.2634 LP  0  0  0  0  0  0  0  0  0  0  0  0  # atno 13499 bound_to 3542
  123.2279  250.8196  327.9462 LP  0  0  0  0  0  0  0  0  0  0  0  0  # atno 13500 bound_to 3545
  121.9995  252.0311  328.0988 LP  0  0  0  0  0  0  0  0  0  0  0  0  # atno 13501 bound_to 3545
  120.8231  248.3458  328.4819 LP  0  0  0  0  0  0  0  0  0  0  0  0  # atno 13502 bound_to 3563
  123.5543  249.2465  327.0319 LP  0  0  0  0  0  0  0  0  0  0  0  0  # atno 13503 bound_to 3592
  117.7880  243.5045  317.6061 LP  0  0  0  0  0  0  0  0  0  0  0  0  # atno 13505 bound_to 8400
  117.4777  244.1450  319.1851 LP  0  0  0  0  0  0  0  0  0  0  0  0  # atno 13506 bound_to 8400
  115.7984  242.4802  317.9158 LP  0  0  0  0  0  0  0  0  0  0  0  0  # atno 13507 bound_to 8423
  114.6427  246.6284  317.8519 LP  0  0  0  0  0  0  0  0  0  0  0  0  # atno 13508 bound_to 8445
  113.9949  248.5220  317.1866 LP  0  0  0  0  0  0  0  0  0  0  0  0  # atno 13509 bound_to 8448
  112.6278  249.2504  316.4117 LP  0  0  0  0  0  0  0  0  0  0  0  0  # atno 13510 bound_to 8448
  115.3606  246.5720  316.4965 LP  0  0  0  0  0  0  0  0  0  0  0  0  # atno 13511 bound_to 8940
  115.9892  247.2217  317.9739 LP  0  0  0  0  0  0  0  0  0  0  0  0  # atno 13512 bound_to 8940
  118.2223  247.3750  315.2498 LP  0  0  0  0  0  0  0  0  0  0  0  0  # atno 13513 bound_to 8972
  121.4410  246.1130  316.0924 LP  0  0  0  0  0  0  0  0  0  0  0  0  # atno 13514 bound_to 8975
  120.8017  247.4838  316.9362 LP  0  0  0  0  0  0  0  0  0  0  0  0  # atno 13515 bound_to 8975
  119.7121  244.2685  317.6026 LP  0  0  0  0  0  0  0  0  0  0  0  0  # atno 13516 bound_to 8992
  120.8282  242.7397  317.2205 LP  0  0  0  0  0  0  0  0  0  0  0  0  # atno 13517 bound_to 8995
  121.9865  241.6388  317.8885 LP  0  0  0  0  0  0  0  0  0  0  0  0  # atno 13518 bound_to 8995
  122.8340  243.2840  319.5878 LP  0  0  0  0  0  0  0  0  0  0  0  0  # atno 13519 bound_to 9016
  122.1365  242.2745  323.3993 LP  0  0  0  0  0  0  0  0  0  0  0  0  # atno 13520 bound_to 9019
  120.8617  242.9345  322.4301 LP  0  0  0  0  0  0  0  0  0  0  0  0  # atno 13521 bound_to 9019
  120.7696  240.2108  321.3609 LP  0  0  0  0  0  0  0  0  0  0  0  0  # atno 13522 bound_to 9062
  121.0726  239.6337  325.0251 LP  0  0  0  0  0  0  0  0  0  0  0  0  # atno 13523 bound_to 9100
  111.7739  244.9017  317.9611 LP  0  0  0  0  0  0  0  0  0  0  0  0  # atno 13528 bound_to 8426
  112.4293  244.1363  316.5523 LP  0  0  0  0  0  0  0  0  0  0  0  0  # atno 13529 bound_to 8426
  115.2357  239.9449  316.2462 LP  0  0  0  0  0  0  0  0  0  0  0  0  # atno 13530 bound_to 8363
  114.8696  239.5288  317.8872 LP  0  0  0  0  0  0  0  0  0  0  0  0  # atno 13531 bound_to 8363
  110.5060  247.8663  318.3708 LP  0  0  0  0  0  0  0  0  0  0  0  0  # atno 13532 bound_to 8476
  114.2451  239.8588  321.8340 LP  0  0  0  0  0  0  0  0  0  0  0  0  # atno 13533 bound_to 9073
  113.9017  238.9697  323.1600 LP  0  0  0  0  0  0  0  0  0  0  0  0  # atno 13534 bound_to 9073
  114.6734  249.6520  316.0077 LP  0  0  0  0  0  0  0  0  0  0  0  0  # atno 13535 bound_to 8937
  119.0374  244.1208  313.9601 LP  0  0  0  0  0  0  0  0  0  0  0  0  # atno 13536 bound_to 8977
  120.0662  244.9428  314.9257 LP  0  0  0  0  0  0  0  0  0  0  0  0  # atno 13537 bound_to 8977
  124.0050  246.6453  318.3217 LP  0  0  0  0  0  0  0  0  0  0  0  0  # atno 13538 bound_to 4885
  125.5195  247.2277  318.1384 LP  0  0  0  0  0  0  0  0  0  0  0  0  # atno 13539 bound_to 4885
  107.5231  244.1429  317.5817 LP  0  0  0  0  0  0  0  0  0  0  0  0  # atno 13540 bound_to 5565
  111.0521  242.7445  316.2486 LP  0  0  0  0  0  0  0  0  0  0  0  0  # atno 13541 bound_to 5598
  111.5574  238.7337  318.0853 LP  0  0  0  0  0  0  0  0  0  0  0  0  # atno 13542 bound_to 5639
  110.4890  240.0923  318.1972 LP  0  0  0  0  0  0  0  0  0  0  0  0  # atno 13543 bound_to 5639
  110.7098  238.1679  321.3797 LP  0  0  0  0  0  0  0  0  0  0  0  0  # atno 13544 bound_to 8319
  111.1081  239.3913  320.3741 LP  0  0  0  0  0  0  0  0  0  0  0  0  # atno 13545 bound_to 8319
  113.3999  238.7399  327.9910 LP  0  0  0  0  0  0  0  0  0  0  0  0  # atno 13548 bound_to 9180
  113.5517  237.4197  329.1019 LP  0  0  0  0  0  0  0  0  0  0  0  0  # atno 13549 bound_to 9180
  110.2955  241.0416  314.6391 LP  0  0  0  0  0  0  0  0  0  0  0  0  # atno 13552 bound_to 5636

> <Gold.Score>
     Fitness  S(hb_ext) S(vdw_ext)  S(hb_int)    S(int)      intcor
     36.65       4.71      24.06       0.00      -1.14      -0.77

> <Gold.Goldscore.Fitness>
36.6505

> <Gold.Goldscore.Internal.Vdw>
-1.3838

> <Gold.Goldscore.Internal.Torsion>
-0.5218

> <Gold.Goldscore.External.Vdw>
24.0597

> <Gold.Goldscore.Internal.HBond>
0.0000

> <Gold.Goldscore.External.HBond>
4.7086

> <Gold.Goldscore.Internal.Correction>
-0.7653

> <Gold.Goldscore.Hbonds>
donor molecule, donor type, donor heavy atom, donor atom, acceptor molecule, acceptor atom, score
      P1  H  9513  9527       L1    17  0.48
      L1  H    10    23       P1  9073  0.92

> <Gold.Goldscore.Internal.Vdw.Weighted>
-1.3838

> <Gold.Goldscore.Internal.Torsion.Weighted>
-0.5218

> <Gold.Goldscore.External.Vdw.Weighted>
33.0821

> <Gold.Goldscore.Internal.HBond.Weighted>
0.0000

> <Gold.Goldscore.External.HBond.Weighted>
4.7086

> <Gold.Goldscore.Internal.Correction.Weighted>
-0.7653

> <Gold.Rescore>
     Score     S(PLP)   S(hbond)     S(cho)   S(metal)  DE(clash)   DE(tors)     intcor
     11.22     -10.89       0.89       0.00       0.00       0.00       1.17       ----

> <Gold.PLP.Fitness>
11.2244

> <Gold.PLP.PLP>
-10.8862

> <Gold.PLP.part.hbond>
-5.8082

> <Gold.PLP.part.metal>
0.0000

> <Gold.PLP.part.buried>
10.4646

> <Gold.PLP.part.nonpolar>
-19.8464

> <Gold.PLP.part.repulsive>
4.8575

> <Gold.PLP.ligand.clash>
0.0000

> <Gold.PLP.ligand.torsion>
1.1715

> <Gold.PLP.Chemscore.Hbond>
0.8938

> <Gold.PLP.Chemscore.CHOScore>
0.0000

> <Gold.PLP.Chemscore.Metal>
0.0000

> <Gold.Chemscore.Hbonds>
donor molecule, donor type, donor heavy atom, donor atom, acceptor molecule, acceptor atom, score
      L1  H    10    23       P1  9073  0.91
      P1  H  9513  9527       L1    17  0.18

> <Gold.PLP.Chemscore.Internal.Correction>
   9.000000E+99

#       Name:                CT1002167954
#       Creating user name   hitesit
#       Creation time:       Sun Apr 16 22:52:06 2023


#       File generated by GOLD software.
#

@<TRIPOS>MOLECULE
CT1002167954|ligand_prepared|mol2|1|dock6
    29    30     1
SMALL
NO_CHARGES


@<TRIPOS>ATOM
      1 C1         112.1031 242.4150 325.7118 C.3            1 RES1               0.0000
      2 C2         111.8248 243.7418 324.9764 C.ar           1 RES1               0.0000
      3 C3         110.7402 241.8027 326.0215 C.2            1 RES1               0.0000
      4 C4         112.9619 241.5776 324.7706 C.2            1 RES1               0.0000
      5 C5         112.8775 242.5870 327.0393 C.3            1 RES1               0.0000
      6 C6         110.5655 244.0079 324.4470 C.ar           1 RES1               0.0000
      7 C7         112.8146 244.7087 324.8220 C.ar           1 RES1               0.0000
      8 N8         110.3479 240.7268 325.2810 N.am           1 RES1               0.0000
      9 O9         110.0041 242.2810 326.8757 O.2            1 RES1               0.0000
     10 N10        112.4242 240.4215 324.2684 N.am           1 RES1               0.0000
     11 O11        114.0933 241.9169 324.4462 O.2            1 RES1               0.0000
     12 C12        112.9699 241.3132 327.8647 C.3            1 RES1               0.0000
     13 C13        110.3044 245.1988 323.7897 C.ar           1 RES1               0.0000
     14 C14        112.5514 245.8989 324.1642 C.ar           1 RES1               0.0000
     15 C15        111.1450 239.9740 324.4566 C.2            1 RES1               0.0000
     16 C16        111.2968 246.1451 323.6482 C.ar           1 RES1               0.0000
     17 O17        110.7175 238.9523 323.9270 O.2            1 RES1               0.0000
     18 H18        113.8927 242.9356 326.8132 H              1 RES1               0.0000
     19 H19        112.3829 243.3611 327.6389 H              1 RES1               0.0000
     20 H20        109.7727 243.2740 324.5465 H              1 RES1               0.0000
     21 H21        113.8093 244.5362 325.2189 H              1 RES1               0.0000
     22 H22        109.3715 240.4571 325.3462 H              1 RES1               0.0000
     23 H23        113.0341 239.8408 323.7018 H              1 RES1               0.0000
     24 H24        113.5227 241.4892 328.7850 H              1 RES1               0.0000
     25 H25        111.9782 240.9520 328.1289 H              1 RES1               0.0000
     26 H26        113.4791 240.5291 327.3081 H              1 RES1               0.0000
     27 H27        109.3157 245.3871 323.3843 H              1 RES1               0.0000
     28 H28        113.3357 246.6406 324.0546 H              1 RES1               0.0000
     29 H29        111.0919 247.0781 323.1336 H              1 RES1               0.0000
@<TRIPOS>BOND
    1    1    2 1     
    2    1    3 1     
    3    1    4 1     
    4    1    5 1     
    5    2    6 ar    
    6    2    7 ar    
    7    3    8 1     
    8    3    9 2     
    9    4   10 1     
   10    4   11 2     
   11    5   12 1     
   12    5   18 1     
   13    5   19 1     
   14    6   13 ar    
   15    6   20 1     
   16    7   14 ar    
   17    7   21 1     
   18    8   15 1     
   19    8   22 1     
   20   10   15 1     
   21   10   23 1     
   22   12   24 1     
   23   12   25 1     
   24   12   26 1     
   25   13   16 ar    
   26   13   27 1     
   27   14   16 ar    
   28   14   28 1     
   29   15   17 2     
   30   16   29 1     
@<TRIPOS>SUBSTRUCTURE
      1 RES1           1
@<TRIPOS>SET
DONOR_HYDROGENS      STATIC     ATOMS    <user>   **** ""
2 22 23
ATOM$RED        STATIC     ATOMS    COLORGROUP SYSTEM
2 22 23
@<TRIPOS>COMMENT
> <Gold.Version>
2022.3.0

> <Gold.Id.Protein>
unknown|4uch_clean|pdb

> <Gold.Protein.RotatedTorsions>
[ 1282 1268 1269 1270 ] final   -8.64 input   42.93 | X-H torsion
[ 12864 12852 12853 12854 ] final   83.95 input  102.46 | X-H torsion
[ 12872 12863 12862 12860 ] final  122.89 input   59.97 | X-H torsion
[ 12900 12891 12892 12893 ] final   59.82 input   33.49 | X-H torsion
[ 12960 12952 12953 12954 ] final   57.56 input  127.22 | X-H torsion
[ 13446 13426 13425 13421 ] final  173.43 input   59.98 | X-H torsion
[ 1244 1232 1233 1234 ] final   45.18 input  119.89 | X-H torsion
[ 5550 5545 5544 5541 ] final  132.04 input   60.01 | X-H torsion
[ 3548 3542 3543 3544 ] final  -47.08 input   78.91 | X-H torsion
[ 3570 3563 3564 3565 ] final  -78.06 input  104.01 | X-H torsion
[ 3596 3592 3593 3594 ] final   88.59 input   81.17 | X-H torsion
[ 8428 8423 8424 8425 ] final  -49.22 input   41.93 | X-H torsion
[ 8452 8445 8446 8447 ] final   74.77 input   98.48 | X-H torsion
[ 8978 8972 8973 8974 ] final  -94.26 input   32.89 | X-H torsion
[ 8996 8992 8993 8994 ] final   65.67 input   45.98 | X-H torsion
[ 9030 9016 9017 9018 ] final   21.57 input   38.77 | X-H torsion
[ 9074 9062 9063 9064 ] final -151.85 input   99.93 | X-H torsion
[ 9108 9100 9101 9102 ] final  113.14 input   97.82 | X-H torsion
[ 8482 8476 8477 8478 ] final -178.46 input   55.16 | X-H torsion
[ 9082 9073 9072 9070 ] final  130.72 input   60.02 | X-H torsion
[ 8948 8937 8938 8939 ] final   39.30 input   49.52 | X-H torsion
[ 8982 8977 8976 8973 ] final -158.33 input   60.00 | X-H torsion
[ 4890 4885 4884 4881 ] final   23.21 input   59.99 | X-H torsion
[ 5574 5565 5566 5567 ] final -119.98 input   50.85 | X-H torsion
[ 5606 5598 5599 5600 ] final   45.94 input  117.92 | X-H torsion
[ 8328 8319 8318 8316 ] final -164.03 input   59.98 | X-H torsion
[ 5644 5636 5637 5638 ] final   77.85 input   69.86 | X-H torsion
[ 13451 13428 13427 13425 ] final   81.94 input   60.01 | X-H torsion
[ 8508 8500 8501 8502 ] final   -7.21 input   75.08 | X-H torsion
[ 4906 4901 4902 4903 ] final -101.68 input   29.84 | X-H torsion
[ 13460 1235 1234 1233 ] final  162.32 input    0.00 | X-H torsion
[ 13464 8503 8502 8501 ] final   91.96 input    0.00 | X-H torsion
[ 13466 12822 12821 12820 ] final  -89.50 input   -0.00 | X-H torsion
[ 13469 12855 12854 12853 ] final  101.97 input   -0.00 | X-H torsion
[ 13474 12894 12893 12892 ] final  -34.36 input    0.00 | X-H torsion
[ 13493 5543 5542 5541 ] final  179.28 input    0.00 | X-H torsion
[ 13497 3502 3501 3500 ] final   69.58 input   -0.00 | X-H torsion
[ 13500 3545 3544 3543 ] final -178.09 input    0.00 | X-H torsion
[ 13505 8400 8399 8398 ] final   19.21 input   -0.00 | X-H torsion
[ 13509 8448 8447 8446 ] final   46.92 input    0.00 | X-H torsion
[ 13511 8940 8939 8938 ] final -140.19 input    0.00 | X-H torsion
[ 13514 8975 8974 8973 ] final   40.99 input   -0.00 | X-H torsion
[ 13517 8995 8994 8993 ] final   93.20 input    0.00 | X-H torsion
[ 13520 9019 9018 9017 ] final -129.21 input   -0.00 | X-H torsion
[ 13528 8426 8425 8424 ] final  178.67 input    0.00 | X-H torsion
[ 13530 8363 8362 8361 ] final  -38.21 input    0.00 | X-H torsion
[ 13542 5639 5638 5637 ] final  151.49 input    0.00 | X-H torsion
[ 13548 9180 9179 9178 ] final   42.24 input   -0.00 | X-H torsion

> <Gold.Protein.ActiveResidues>
 TRP311  MET341  HIS342  TRP414  ALA417  ARG419  CYS420  VAL421  GLY422  ARG423 
 SER462  ALA463  SER482  GLN483  LEU484  ILE485  ARG486  TRP566  TYR567  LEU569 
 PRO570  ALA571  VAL572  SER573  ASN574  MET575  PHE589  SER590  GLY591  TRP592 
 TYR593  MET594  GLU597  ILE598  ARG601  ASP602  ARG608  TRP683  PHE696  GLU710 
 TYR711  GLN712  PRO713  ASP714  HEM750  H4B760 

> <Gold.Protein.RotatedAtoms>
  106.1776  254.0289  334.9331 H   0  0  0  0  0  0  0  0  0  0  0  0  # atno 1244 bound_to 1232
  106.1734  255.0533  333.4352 H   0  0  0  0  0  0  0  0  0  0  0  0  # atno 1282 bound_to 1268
  119.3436  251.4612  329.2846 H   0  0  0  0  0  0  0  0  0  0  0  0  # atno 3548 bound_to 3542
  121.5133  249.9293  328.2039 H   0  0  0  0  0  0  0  0  0  0  0  0  # atno 3570 bound_to 3563
  122.6791  248.4620  326.5297 H   0  0  0  0  0  0  0  0  0  0  0  0  # atno 3596 bound_to 3592
  125.0026  245.8084  317.4262 H   0  0  0  0  0  0  0  0  0  0  0  0  # atno 4890 bound_to 4885
  122.8754  247.9243  314.6753 H   0  0  0  0  0  0  0  0  0  0  0  0  # atno 4906 bound_to 4901
  106.6866  244.1381  321.4455 H   0  0  0  0  0  0  0  0  0  0  0  0  # atno 5550 bound_to 5545
  108.1697  245.2096  318.3807 H   0  0  0  0  0  0  0  0  0  0  0  0  # atno 5574 bound_to 5565
  111.0903  242.7455  316.2433 H   0  0  0  0  0  0  0  0  0  0  0  0  # atno 5606 bound_to 5598
  111.7818  240.9641  315.5493 H   0  0  0  0  0  0  0  0  0  0  0  0  # atno 5644 bound_to 5636
  111.8149  239.5312  320.7254 H   0  0  0  0  0  0  0  0  0  0  0  0  # atno 8328 bound_to 8319
  115.0011  243.2021  319.1124 H   0  0  0  0  0  0  0  0  0  0  0  0  # atno 8428 bound_to 8423
  114.7871  246.6384  318.1831 H   0  0  0  0  0  0  0  0  0  0  0  0  # atno 8452 bound_to 8445
  111.7306  247.1375  317.3685 H   0  0  0  0  0  0  0  0  0  0  0  0  # atno 8482 bound_to 8476
  109.8219  249.9971  317.9014 H   0  0  0  0  0  0  0  0  0  0  0  0  # atno 8508 bound_to 8500
  114.5957  248.8239  316.0704 H   0  0  0  0  0  0  0  0  0  0  0  0  # atno 8948 bound_to 8937
  117.7248  247.8588  316.8450 H   0  0  0  0  0  0  0  0  0  0  0  0  # atno 8978 bound_to 8972
  118.7533  244.4730  313.7605 H   0  0  0  0  0  0  0  0  0  0  0  0  # atno 8982 bound_to 8977
  119.3167  244.6868  318.7694 H   0  0  0  0  0  0  0  0  0  0  0  0  # atno 8996 bound_to 8992
  122.0933  243.5480  320.8209 H   0  0  0  0  0  0  0  0  0  0  0  0  # atno 9030 bound_to 9016
  120.7918  240.4674  321.4346 H   0  0  0  0  0  0  0  0  0  0  0  0  # atno 9074 bound_to 9062
  114.2755  239.1789  321.3337 H   0  0  0  0  0  0  0  0  0  0  0  0  # atno 9082 bound_to 9073
  120.7550  241.2351  325.5657 H   0  0  0  0  0  0  0  0  0  0  0  0  # atno 9108 bound_to 9100
  108.9647  257.1799  324.5472 H   0  0  0  0  0  0  0  0  0  0  0  0  # atno 12864 bound_to 12852
  111.5054  252.3919  328.0866 H   0  0  0  0  0  0  0  0  0  0  0  0  # atno 12872 bound_to 12863
  106.1933  254.7293  321.8405 H   0  0  0  0  0  0  0  0  0  0  0  0  # atno 12900 bound_to 12891
   99.9778  253.0361  321.3181 H   0  0  0  0  0  0  0  0  0  0  0  0  # atno 12960 bound_to 12952
  107.8691  246.5712  336.8927 H   0  0  0  0  0  0  0  0  0  0  0  0  # atno 13446 bound_to 13426
  108.7430  250.5914  336.1700 H   0  0  0  0  0  0  0  0  0  0  0  0  # atno 13451 bound_to 13428
  108.1859  254.7254  330.7987 LP  0  0  0  0  0  0  0  0  0  0  0  0  # atno 13460 bound_to 1235
  109.1452  253.6888  331.8013 LP  0  0  0  0  0  0  0  0  0  0  0  0  # atno 13461 bound_to 1235
  106.5233  254.0350  332.0533 LP  0  0  0  0  0  0  0  0  0  0  0  0  # atno 13462 bound_to 1268
  106.8859  252.4870  320.1592 LP  0  0  0  0  0  0  0  0  0  0  0  0  # atno 13464 bound_to 8503
  106.6571  253.0894  318.5515 LP  0  0  0  0  0  0  0  0  0  0  0  0  # atno 13465 bound_to 8503
  109.2837  256.4614  320.9433 LP  0  0  0  0  0  0  0  0  0  0  0  0  # atno 13466 bound_to 12822
  110.3674  255.2992  321.6325 LP  0  0  0  0  0  0  0  0  0  0  0  0  # atno 13467 bound_to 12822
  109.7551  256.5052  323.1454 LP  0  0  0  0  0  0  0  0  0  0  0  0  # atno 13468 bound_to 12852
  107.0238  258.1343  321.9387 LP  0  0  0  0  0  0  0  0  0  0  0  0  # atno 13469 bound_to 12855
  106.3115  258.1208  323.5175 LP  0  0  0  0  0  0  0  0  0  0  0  0  # atno 13470 bound_to 12855
  110.7683  251.0546  327.5242 LP  0  0  0  0  0  0  0  0  0  0  0  0  # atno 13471 bound_to 12863
  110.2119  251.7921  328.8708 LP  0  0  0  0  0  0  0  0  0  0  0  0  # atno 13472 bound_to 12863
  106.2731  256.1264  322.8868 LP  0  0  0  0  0  0  0  0  0  0  0  0  # atno 13473 bound_to 12891
  104.4597  253.6325  321.7481 LP  0  0  0  0  0  0  0  0  0  0  0  0  # atno 13474 bound_to 12894
  102.9029  253.7342  322.5005 LP  0  0  0  0  0  0  0  0  0  0  0  0  # atno 13475 bound_to 12894
  101.6800  252.8246  320.9800 LP  0  0  0  0  0  0  0  0  0  0  0  0  # atno 13476 bound_to 12952
  109.4522  246.2207  337.0279 LP  0  0  0  0  0  0  0  0  0  0  0  0  # atno 13490 bound_to 13426
  108.6514  245.8751  335.6474 LP  0  0  0  0  0  0  0  0  0  0  0  0  # atno 13491 bound_to 13426
  107.4818  253.0847  335.6197 LP  0  0  0  0  0  0  0  0  0  0  0  0  # atno 13492 bound_to 1232
  110.0181  245.8917  318.7873 LP  0  0  0  0  0  0  0  0  0  0  0  0  # atno 13493 bound_to 5543
  108.8955  247.1329  319.2336 LP  0  0  0  0  0  0  0  0  0  0  0  0  # atno 13494 bound_to 5543
  106.7782  243.7662  319.8636 LP  0  0  0  0  0  0  0  0  0  0  0  0  # atno 13495 bound_to 5545
  105.3227  243.8828  320.5947 LP  0  0  0  0  0  0  0  0  0  0  0  0  # atno 13496 bound_to 5545
  117.3093  249.5973  329.2203 LP  0  0  0  0  0  0  0  0  0  0  0  0  # atno 13497 bound_to 3502
  118.8567  249.4667  329.9876 LP  0  0  0  0  0  0  0  0  0  0  0  0  # atno 13498 bound_to 3502
  118.8710  252.2493  327.8005 LP  0  0  0  0  0  0  0  0  0  0  0  0  # atno 13499 bound_to 3542
  123.1842  250.8701  328.3634 LP  0  0  0  0  0  0  0  0  0  0  0  0  # atno 13500 bound_to 3545
  122.0431  251.9806  327.6816 LP  0  0  0  0  0  0  0  0  0  0  0  0  # atno 13501 bound_to 3545
  120.8506  248.3201  328.4042 LP  0  0  0  0  0  0  0  0  0  0  0  0  # atno 13502 bound_to 3563
  123.9434  248.3837  327.7330 LP  0  0  0  0  0  0  0  0  0  0  0  0  # atno 13503 bound_to 3592
  118.1572  243.1466  318.5192 LP  0  0  0  0  0  0  0  0  0  0  0  0  # atno 13505 bound_to 8400
  117.1086  244.5028  318.2720 LP  0  0  0  0  0  0  0  0  0  0  0  0  # atno 13506 bound_to 8400
  115.2221  242.2361  317.6763 LP  0  0  0  0  0  0  0  0  0  0  0  0  # atno 13507 bound_to 8423
  113.7588  245.2250  318.1742 LP  0  0  0  0  0  0  0  0  0  0  0  0  # atno 13508 bound_to 8445
  113.8698  248.2296  316.7155 LP  0  0  0  0  0  0  0  0  0  0  0  0  # atno 13509 bound_to 8448
  112.7528  249.5428  316.8828 LP  0  0  0  0  0  0  0  0  0  0  0  0  # atno 13510 bound_to 8448
  116.2447  246.6665  317.8453 LP  0  0  0  0  0  0  0  0  0  0  0  0  # atno 13511 bound_to 8940
  115.1051  247.1273  316.6251 LP  0  0  0  0  0  0  0  0  0  0  0  0  # atno 13512 bound_to 8940
  118.3689  247.4209  315.2814 LP  0  0  0  0  0  0  0  0  0  0  0  0  # atno 13513 bound_to 8972
  120.5653  247.4619  316.4894 LP  0  0  0  0  0  0  0  0  0  0  0  0  # atno 13514 bound_to 8975
  121.6774  246.1349  316.5391 LP  0  0  0  0  0  0  0  0  0  0  0  0  # atno 13515 bound_to 8975
  119.9917  245.3450  317.2974 LP  0  0  0  0  0  0  0  0  0  0  0  0  # atno 13516 bound_to 8992
  122.2433  242.2506  317.3368 LP  0  0  0  0  0  0  0  0  0  0  0  0  # atno 13517 bound_to 8995
  120.5714  242.1279  317.7722 LP  0  0  0  0  0  0  0  0  0  0  0  0  # atno 13518 bound_to 8995
  122.0219  243.1631  319.1191 LP  0  0  0  0  0  0  0  0  0  0  0  0  # atno 13519 bound_to 9016
  121.9648  242.1731  323.5038 LP  0  0  0  0  0  0  0  0  0  0  0  0  # atno 13520 bound_to 9019
  121.0334  243.0359  322.3256 LP  0  0  0  0  0  0  0  0  0  0  0  0  # atno 13521 bound_to 9019
  122.2835  239.7647  322.0123 LP  0  0  0  0  0  0  0  0  0  0  0  0  # atno 13522 bound_to 9062
  121.3552  239.7167  324.9435 LP  0  0  0  0  0  0  0  0  0  0  0  0  # atno 13523 bound_to 9100
  111.7494  245.1917  317.6732 LP  0  0  0  0  0  0  0  0  0  0  0  0  # atno 13528 bound_to 8426
  112.4537  243.8464  316.8402 LP  0  0  0  0  0  0  0  0  0  0  0  0  # atno 13529 bound_to 8426
  115.2461  239.6855  316.2241 LP  0  0  0  0  0  0  0  0  0  0  0  0  # atno 13530 bound_to 8363
  114.8592  239.7881  317.9093 LP  0  0  0  0  0  0  0  0  0  0  0  0  # atno 13531 bound_to 8363
  110.5741  247.9579  318.3875 LP  0  0  0  0  0  0  0  0  0  0  0  0  # atno 13532 bound_to 8476
  114.0400  239.7430  322.8417 LP  0  0  0  0  0  0  0  0  0  0  0  0  # atno 13533 bound_to 9073
  113.9380  238.1413  322.5409 LP  0  0  0  0  0  0  0  0  0  0  0  0  # atno 13534 bound_to 9073
  114.9578  249.5527  314.5222 LP  0  0  0  0  0  0  0  0  0  0  0  0  # atno 13535 bound_to 8937
  119.9952  244.4651  314.8121 LP  0  0  0  0  0  0  0  0  0  0  0  0  # atno 13536 bound_to 8977
  119.2986  245.8766  314.3776 LP  0  0  0  0  0  0  0  0  0  0  0  0  # atno 13537 bound_to 8977
  124.0327  246.7219  318.3601 LP  0  0  0  0  0  0  0  0  0  0  0  0  # atno 13538 bound_to 4885
  125.5762  247.1798  318.0875 LP  0  0  0  0  0  0  0  0  0  0  0  0  # atno 13539 bound_to 4885
  107.5962  243.5614  318.2870 LP  0  0  0  0  0  0  0  0  0  0  0  0  # atno 13540 bound_to 5565
  110.0735  244.0690  315.7267 LP  0  0  0  0  0  0  0  0  0  0  0  0  # atno 13541 bound_to 5598
  110.2655  239.5232  318.5458 LP  0  0  0  0  0  0  0  0  0  0  0  0  # atno 13542 bound_to 5639
  111.7809  239.3028  317.7367 LP  0  0  0  0  0  0  0  0  0  0  0  0  # atno 13543 bound_to 5639
  111.6574  238.3632  321.8480 LP  0  0  0  0  0  0  0  0  0  0  0  0  # atno 13544 bound_to 8319
  110.4747  238.6079  320.7489 LP  0  0  0  0  0  0  0  0  0  0  0  0  # atno 13545 bound_to 8319
  113.4456  238.8913  328.2456 LP  0  0  0  0  0  0  0  0  0  0  0  0  # atno 13548 bound_to 9180
  113.5061  237.2683  328.8473 LP  0  0  0  0  0  0  0  0  0  0  0  0  # atno 13549 bound_to 9180
  110.3602  241.0162  314.5311 LP  0  0  0  0  0  0  0  0  0  0  0  0  # atno 13552 bound_to 5636

> <Gold.Score>
     Fitness  S(hb_ext) S(vdw_ext)  S(hb_int)    S(int)      intcor
     36.24       6.42      22.83       0.00      -1.58      -0.77

> <Gold.Goldscore.Fitness>
36.2362

> <Gold.Goldscore.Internal.Vdw>
-1.8565

> <Gold.Goldscore.Internal.Torsion>
-0.4898

> <Gold.Goldscore.External.Vdw>
22.8343

> <Gold.Goldscore.Internal.HBond>
0.0000

> <Gold.Goldscore.External.HBond>
6.4200

> <Gold.Goldscore.Internal.Correction>
-0.7653

> <Gold.Goldscore.Hbonds>
donor molecule, donor type, donor heavy atom, donor atom, acceptor molecule, acceptor atom, score
      P1  H  5572  5580       L1    17  0.02
      P1  H  9513  9527       L1    17  0.74
      L1  H    10    23       P1  9073  0.96

> <Gold.Goldscore.Internal.Vdw.Weighted>
-1.8565

> <Gold.Goldscore.Internal.Torsion.Weighted>
-0.4898

> <Gold.Goldscore.External.Vdw.Weighted>
31.3972

> <Gold.Goldscore.Internal.HBond.Weighted>
0.0000

> <Gold.Goldscore.External.HBond.Weighted>
6.4200

> <Gold.Goldscore.Internal.Correction.Weighted>
-0.7653

> <Gold.Rescore>
     Score     S(PLP)   S(hbond)     S(cho)   S(metal)  DE(clash)   DE(tors)     intcor
     11.50     -10.99       1.00       0.00       0.00       1.42       0.54       ----

> <Gold.PLP.Fitness>
11.5012

> <Gold.PLP.PLP>
-10.9924

> <Gold.PLP.part.hbond>
-3.2660

> <Gold.PLP.part.metal>
0.0000

> <Gold.PLP.part.buried>
3.3297

> <Gold.PLP.part.nonpolar>
-19.3213

> <Gold.PLP.part.repulsive>
8.1519

> <Gold.PLP.ligand.clash>
1.4188

> <Gold.PLP.ligand.torsion>
0.5362

> <Gold.PLP.Chemscore.Hbond>
1.0000

> <Gold.PLP.Chemscore.CHOScore>
0.0000

> <Gold.PLP.Chemscore.Metal>
0.0000

> <Gold.Chemscore.Hbonds>
donor molecule, donor type, donor heavy atom, donor atom, acceptor molecule, acceptor atom, score
      L1  H    10    23       P1  9073  0.89
      P1  H  9513  9527       L1    17  0.16

> <Gold.PLP.Chemscore.Internal.Correction>
   9.000000E+99

#       Name:                CT1002167954
#       Creating user name   hitesit
#       Creation time:       Sun Apr 16 22:52:10 2023


#       File generated by GOLD software.
#

@<TRIPOS>MOLECULE
CT1002167954|ligand_prepared|mol2|1|dock10
    29    30     1
SMALL
NO_CHARGES


@<TRIPOS>ATOM
      1 C1         112.0185 242.4757 326.2426 C.3            1 RES1               0.0000
      2 C2         111.3499 243.8606 326.3600 C.ar           1 RES1               0.0000
      3 C3         111.5787 241.9001 324.8996 C.2            1 RES1               0.0000
      4 C4         113.5199 242.7160 326.3547 C.2            1 RES1               0.0000
      5 C5         111.6082 241.4872 327.3588 C.3            1 RES1               0.0000
      6 C6         111.6768 244.8828 325.4739 C.ar           1 RES1               0.0000
      7 C7         110.4041 244.1298 327.3457 C.ar           1 RES1               0.0000
      8 N8         112.4984 241.8708 323.8931 N.am           1 RES1               0.0000
      9 O9         110.4310 241.5143 324.7149 O.2            1 RES1               0.0000
     10 N10        114.2963 242.4511 325.2571 N.am           1 RES1               0.0000
     11 O11        114.0355 243.1481 327.3783 O.2            1 RES1               0.0000
     12 C12        112.3544 240.1632 327.3100 C.3            1 RES1               0.0000
     13 C13        111.0779 246.1280 325.5679 C.ar           1 RES1               0.0000
     14 C14        109.8064 245.3760 327.4380 C.ar           1 RES1               0.0000
     15 C15        113.8497 242.0686 324.0216 C.2            1 RES1               0.0000
     16 C16        110.1421 246.3754 326.5496 C.ar           1 RES1               0.0000
     17 O17        114.6049 241.9023 323.0681 O.2            1 RES1               0.0000
     18 H18        111.7894 241.9590 328.3324 H              1 RES1               0.0000
     19 H19        110.5323 241.2892 327.2772 H              1 RES1               0.0000
     20 H20        112.4129 244.7075 324.6964 H              1 RES1               0.0000
     21 H21        110.1253 243.3591 328.0561 H              1 RES1               0.0000
     22 H22        112.1492 241.6846 322.9584 H              1 RES1               0.0000
     23 H23        115.3002 242.5480 325.3716 H              1 RES1               0.0000
     24 H24        112.0288 239.5070 328.1144 H              1 RES1               0.0000
     25 H25        112.1764 239.6547 326.3648 H              1 RES1               0.0000
     26 H26        113.4261 240.3205 327.4138 H              1 RES1               0.0000
     27 H27        111.3465 246.9116 324.8672 H              1 RES1               0.0000
     28 H28        109.0709 245.5663 328.2126 H              1 RES1               0.0000
     29 H29        109.6727 247.3508 326.6228 H              1 RES1               0.0000
@<TRIPOS>BOND
    1    1    2 1     
    2    1    3 1     
    3    1    4 1     
    4    1    5 1     
    5    2    6 ar    
    6    2    7 ar    
    7    3    8 1     
    8    3    9 2     
    9    4   10 1     
   10    4   11 2     
   11    5   12 1     
   12    5   18 1     
   13    5   19 1     
   14    6   13 ar    
   15    6   20 1     
   16    7   14 ar    
   17    7   21 1     
   18    8   15 1     
   19    8   22 1     
   20   10   15 1     
   21   10   23 1     
   22   12   24 1     
   23   12   25 1     
   24   12   26 1     
   25   13   16 ar    
   26   13   27 1     
   27   14   16 ar    
   28   14   28 1     
   29   15   17 2     
   30   16   29 1     
@<TRIPOS>SUBSTRUCTURE
      1 RES1           1
@<TRIPOS>SET
DONOR_HYDROGENS      STATIC     ATOMS    <user>   **** ""
2 22 23
ATOM$RED        STATIC     ATOMS    COLORGROUP SYSTEM
2 22 23
@<TRIPOS>COMMENT
> <Gold.Version>
2022.3.0

> <Gold.Id.Protein>
unknown|4uch_clean|pdb

> <Gold.Protein.RotatedTorsions>
[ 1282 1268 1269 1270 ] final  128.42 input   42.93 | X-H torsion
[ 12864 12852 12853 12854 ] final  103.01 input  102.46 | X-H torsion
[ 12872 12863 12862 12860 ] final  109.49 input   59.97 | X-H torsion
[ 12900 12891 12892 12893 ] final  172.86 input   33.49 | X-H torsion
[ 12960 12952 12953 12954 ] final  123.25 input  127.22 | X-H torsion
[ 13446 13426 13425 13421 ] final  134.92 input   59.98 | X-H torsion
[ 1244 1232 1233 1234 ] final -126.17 input  119.89 | X-H torsion
[ 5550 5545 5544 5541 ] final -158.53 input   60.01 | X-H torsion
[ 3548 3542 3543 3544 ] final   45.53 input   78.91 | X-H torsion
[ 3570 3563 3564 3565 ] final  104.39 input  104.01 | X-H torsion
[ 3596 3592 3593 3594 ] final   19.77 input   81.17 | X-H torsion
[ 8428 8423 8424 8425 ] final -159.25 input   41.93 | X-H torsion
[ 8452 8445 8446 8447 ] final   80.28 input   98.48 | X-H torsion
[ 8978 8972 8973 8974 ] final  -43.06 input   32.89 | X-H torsion
[ 8996 8992 8993 8994 ] final -135.77 input   45.98 | X-H torsion
[ 9030 9016 9017 9018 ] final  154.17 input   38.77 | X-H torsion
[ 9074 9062 9063 9064 ] final -175.55 input   99.93 | X-H torsion
[ 9108 9100 9101 9102 ] final  -97.58 input   97.82 | X-H torsion
[ 8482 8476 8477 8478 ] final  108.37 input   55.16 | X-H torsion
[ 9082 9073 9072 9070 ] final   16.07 input   60.02 | X-H torsion
[ 8948 8937 8938 8939 ] final   81.53 input   49.52 | X-H torsion
[ 8982 8977 8976 8973 ] final  -97.96 input   60.00 | X-H torsion
[ 4890 4885 4884 4881 ] final   -4.68 input   59.99 | X-H torsion
[ 5574 5565 5566 5567 ] final   -8.32 input   50.85 | X-H torsion
[ 5606 5598 5599 5600 ] final   26.71 input  117.92 | X-H torsion
[ 8328 8319 8318 8316 ] final  114.81 input   59.98 | X-H torsion
[ 5644 5636 5637 5638 ] final  111.91 input   69.86 | X-H torsion
[ 13451 13428 13427 13425 ] final  -62.85 input   60.01 | X-H torsion
[ 8508 8500 8501 8502 ] final  -94.01 input   75.08 | X-H torsion
[ 4906 4901 4902 4903 ] final  -42.43 input   29.84 | X-H torsion
[ 13460 1235 1234 1233 ] final   66.70 input    0.00 | X-H torsion
[ 13464 8503 8502 8501 ] final   76.99 input    0.00 | X-H torsion
[ 13466 12822 12821 12820 ] final   -0.16 input   -0.00 | X-H torsion
[ 13469 12855 12854 12853 ] final -157.77 input   -0.00 | X-H torsion
[ 13474 12894 12893 12892 ] final  -14.20 input    0.00 | X-H torsion
[ 13493 5543 5542 5541 ] final  -30.33 input    0.00 | X-H torsion
[ 13497 3502 3501 3500 ] final -170.93 input   -0.00 | X-H torsion
[ 13500 3545 3544 3543 ] final   44.32 input    0.00 | X-H torsion
[ 13505 8400 8399 8398 ] final  -64.82 input   -0.00 | X-H torsion
[ 13509 8448 8447 8446 ] final -132.56 input    0.00 | X-H torsion
[ 13511 8940 8939 8938 ] final  -52.33 input    0.00 | X-H torsion
[ 13514 8975 8974 8973 ] final -167.49 input   -0.00 | X-H torsion
[ 13517 8995 8994 8993 ] final    6.39 input    0.00 | X-H torsion
[ 13520 9019 9018 9017 ] final  120.41 input   -0.00 | X-H torsion
[ 13528 8426 8425 8424 ] final  -99.15 input    0.00 | X-H torsion
[ 13530 8363 8362 8361 ] final   80.86 input    0.00 | X-H torsion
[ 13542 5639 5638 5637 ] final   76.83 input    0.00 | X-H torsion
[ 13548 9180 9179 9178 ] final  175.72 input   -0.00 | X-H torsion

> <Gold.Protein.ActiveResidues>
 TRP311  MET341  HIS342  TRP414  ALA417  ARG419  CYS420  VAL421  GLY422  ARG423 
 SER462  ALA463  SER482  GLN483  LEU484  ILE485  ARG486  TRP566  TYR567  LEU569 
 PRO570  ALA571  VAL572  SER573  ASN574  MET575  PHE589  SER590  GLY591  TRP592 
 TYR593  MET594  GLU597  ILE598  ARG601  ASP602  ARG608  TRP683  PHE696  GLU710 
 TYR711  GLN712  PRO713  ASP714  HEM750  H4B760 

> <Gold.Protein.RotatedAtoms>
  107.5833  253.1730  335.5957 H   0  0  0  0  0  0  0  0  0  0  0  0  # atno 1244 bound_to 1232
  105.8856  254.0793  332.1195 H   0  0  0  0  0  0  0  0  0  0  0  0  # atno 1282 bound_to 1268
  119.8349  252.3499  328.5182 H   0  0  0  0  0  0  0  0  0  0  0  0  # atno 3548 bound_to 3542
  120.8491  248.2927  328.4534 H   0  0  0  0  0  0  0  0  0  0  0  0  # atno 3570 bound_to 3563
  123.2729  249.2262  326.7747 H   0  0  0  0  0  0  0  0  0  0  0  0  # atno 3596 bound_to 3592
  124.5734  245.7739  317.5607 H   0  0  0  0  0  0  0  0  0  0  0  0  # atno 4890 bound_to 4885
  122.1077  247.9801  315.0865 H   0  0  0  0  0  0  0  0  0  0  0  0  # atno 4906 bound_to 4901
  105.6306  244.0661  321.3131 H   0  0  0  0  0  0  0  0  0  0  0  0  # atno 5550 bound_to 5545
  107.5293  244.1975  317.5422 H   0  0  0  0  0  0  0  0  0  0  0  0  # atno 5574 bound_to 5565
  110.8252  242.6280  316.2974 H   0  0  0  0  0  0  0  0  0  0  0  0  # atno 5606 bound_to 5598
  111.9391  240.8678  315.0631 H   0  0  0  0  0  0  0  0  0  0  0  0  # atno 5644 bound_to 5636
  112.0642  238.8029  321.6701 H   0  0  0  0  0  0  0  0  0  0  0  0  # atno 8328 bound_to 8319
  115.9650  242.6776  318.1806 H   0  0  0  0  0  0  0  0  0  0  0  0  # atno 8428 bound_to 8423
  114.8074  246.6181  318.2631 H   0  0  0  0  0  0  0  0  0  0  0  0  # atno 8452 bound_to 8445
  110.7810  246.7863  317.6455 H   0  0  0  0  0  0  0  0  0  0  0  0  # atno 8482 bound_to 8476
  109.2336  249.5639  316.9373 H   0  0  0  0  0  0  0  0  0  0  0  0  # atno 8508 bound_to 8500
  114.6460  249.4587  316.1211 H   0  0  0  0  0  0  0  0  0  0  0  0  # atno 8948 bound_to 8937
  118.4686  247.9942  316.7453 H   0  0  0  0  0  0  0  0  0  0  0  0  # atno 8978 bound_to 8972
  118.7062  245.4112  313.8250 H   0  0  0  0  0  0  0  0  0  0  0  0  # atno 8982 bound_to 8977
  119.9744  245.6255  317.4624 H   0  0  0  0  0  0  0  0  0  0  0  0  # atno 8996 bound_to 8992
  122.6808  243.2311  319.3518 H   0  0  0  0  0  0  0  0  0  0  0  0  # atno 9030 bound_to 9016
  120.7534  240.1202  321.3366 H   0  0  0  0  0  0  0  0  0  0  0  0  # atno 9074 bound_to 9062
  114.0605  239.7902  322.7702 H   0  0  0  0  0  0  0  0  0  0  0  0  # atno 9082 bound_to 9073
  121.7157  240.0025  324.8889 H   0  0  0  0  0  0  0  0  0  0  0  0  # atno 9108 bound_to 9100
  109.1065  256.9594  324.6734 H   0  0  0  0  0  0  0  0  0  0  0  0  # atno 12864 bound_to 12852
  111.5609  252.2764  327.9097 H   0  0  0  0  0  0  0  0  0  0  0  0  # atno 12872 bound_to 12863
  106.7573  256.0744  322.0548 H   0  0  0  0  0  0  0  0  0  0  0  0  # atno 12900 bound_to 12891
  100.5422  252.4530  321.8314 H   0  0  0  0  0  0  0  0  0  0  0  0  # atno 12960 bound_to 12952
  108.3260  246.6191  337.3050 H   0  0  0  0  0  0  0  0  0  0  0  0  # atno 13446 bound_to 13426
  110.4227  250.0352  336.3971 H   0  0  0  0  0  0  0  0  0  0  0  0  # atno 13451 bound_to 13428
  108.4103  253.4683  330.9271 LP  0  0  0  0  0  0  0  0  0  0  0  0  # atno 13460 bound_to 1235
  108.9208  254.9459  331.6729 LP  0  0  0  0  0  0  0  0  0  0  0  0  # atno 13461 bound_to 1235
  106.8000  254.9715  333.3182 LP  0  0  0  0  0  0  0  0  0  0  0  0  # atno 13462 bound_to 1268
  106.7318  252.3362  320.0930 LP  0  0  0  0  0  0  0  0  0  0  0  0  # atno 13464 bound_to 8503
  106.8112  253.2402  318.6177 LP  0  0  0  0  0  0  0  0  0  0  0  0  # atno 13465 bound_to 8503
  110.4949  256.3503  321.0030 LP  0  0  0  0  0  0  0  0  0  0  0  0  # atno 13466 bound_to 12822
  109.1563  255.4103  321.5729 LP  0  0  0  0  0  0  0  0  0  0  0  0  # atno 13467 bound_to 12822
  109.6154  256.7224  323.0211 LP  0  0  0  0  0  0  0  0  0  0  0  0  # atno 13468 bound_to 12852
  105.8282  258.0913  322.5183 LP  0  0  0  0  0  0  0  0  0  0  0  0  # atno 13469 bound_to 12855
  107.5071  258.1638  322.9380 LP  0  0  0  0  0  0  0  0  0  0  0  0  # atno 13470 bound_to 12855
  110.5961  250.9928  327.6464 LP  0  0  0  0  0  0  0  0  0  0  0  0  # atno 13471 bound_to 12863
  110.3282  251.9703  328.9268 LP  0  0  0  0  0  0  0  0  0  0  0  0  # atno 13472 bound_to 12863
  105.7219  254.8120  322.6774 LP  0  0  0  0  0  0  0  0  0  0  0  0  # atno 13473 bound_to 12891
  104.5392  253.7398  322.0203 LP  0  0  0  0  0  0  0  0  0  0  0  0  # atno 13474 bound_to 12894
  102.8234  253.6269  322.2284 LP  0  0  0  0  0  0  0  0  0  0  0  0  # atno 13475 bound_to 12894
  101.1297  253.3932  320.4795 LP  0  0  0  0  0  0  0  0  0  0  0  0  # atno 13476 bound_to 12952
  109.5623  245.9706  336.4694 LP  0  0  0  0  0  0  0  0  0  0  0  0  # atno 13490 bound_to 13426
  108.0809  246.0770  335.7906 LP  0  0  0  0  0  0  0  0  0  0  0  0  # atno 13491 bound_to 13426
  106.1219  253.9127  334.9787 LP  0  0  0  0  0  0  0  0  0  0  0  0  # atno 13492 bound_to 1232
  108.9701  247.1976  318.8020 LP  0  0  0  0  0  0  0  0  0  0  0  0  # atno 13493 bound_to 5543
  109.9434  245.8269  319.2189 LP  0  0  0  0  0  0  0  0  0  0  0  0  # atno 13494 bound_to 5543
  107.1832  244.0095  320.8279 LP  0  0  0  0  0  0  0  0  0  0  0  0  # atno 13495 bound_to 5545
  105.9810  243.7118  319.7636 LP  0  0  0  0  0  0  0  0  0  0  0  0  # atno 13496 bound_to 5545
  118.7664  249.2668  329.1429 LP  0  0  0  0  0  0  0  0  0  0  0  0  # atno 13497 bound_to 3502
  117.3996  249.7972  330.0650 LP  0  0  0  0  0  0  0  0  0  0  0  0  # atno 13498 bound_to 3502
  118.3876  251.3747  328.5546 LP  0  0  0  0  0  0  0  0  0  0  0  0  # atno 13499 bound_to 3542
  122.0334  252.0015  328.3078 LP  0  0  0  0  0  0  0  0  0  0  0  0  # atno 13500 bound_to 3545
  123.1939  250.8492  327.7372 LP  0  0  0  0  0  0  0  0  0  0  0  0  # atno 13501 bound_to 3545
  121.4906  249.8969  328.1638 LP  0  0  0  0  0  0  0  0  0  0  0  0  # atno 13502 bound_to 3563
  123.3626  247.6362  327.4934 LP  0  0  0  0  0  0  0  0  0  0  0  0  # atno 13503 bound_to 3592
  117.6723  243.8972  319.2577 LP  0  0  0  0  0  0  0  0  0  0  0  0  # atno 13505 bound_to 8400
  117.5935  243.7522  317.5335 LP  0  0  0  0  0  0  0  0  0  0  0  0  # atno 13506 bound_to 8400
  114.2718  242.7533  318.5949 LP  0  0  0  0  0  0  0  0  0  0  0  0  # atno 13507 bound_to 8423
  113.7390  245.2448  318.0961 LP  0  0  0  0  0  0  0  0  0  0  0  0  # atno 13508 bound_to 8445
  112.7564  249.5449  316.8894 LP  0  0  0  0  0  0  0  0  0  0  0  0  # atno 13509 bound_to 8448
  113.8662  248.2275  316.7089 LP  0  0  0  0  0  0  0  0  0  0  0  0  # atno 13510 bound_to 8448
  115.5369  247.6240  317.6848 LP  0  0  0  0  0  0  0  0  0  0  0  0  # atno 13511 bound_to 8940
  115.8130  246.1697  316.7856 LP  0  0  0  0  0  0  0  0  0  0  0  0  # atno 13512 bound_to 8940
  117.6401  247.2882  315.3791 LP  0  0  0  0  0  0  0  0  0  0  0  0  # atno 13513 bound_to 8972
  121.7309  246.3306  316.9139 LP  0  0  0  0  0  0  0  0  0  0  0  0  # atno 13514 bound_to 8975
  120.5118  247.2662  316.1147 LP  0  0  0  0  0  0  0  0  0  0  0  0  # atno 13515 bound_to 8975
  119.3499  244.4288  318.5729 LP  0  0  0  0  0  0  0  0  0  0  0  0  # atno 13516 bound_to 8992
  121.2711  242.8645  317.0297 LP  0  0  0  0  0  0  0  0  0  0  0  0  # atno 13517 bound_to 8995
  121.5436  241.5140  318.0793 LP  0  0  0  0  0  0  0  0  0  0  0  0  # atno 13518 bound_to 8995
  121.4451  243.4742  320.5616 LP  0  0  0  0  0  0  0  0  0  0  0  0  # atno 13519 bound_to 9016
  120.6553  242.4389  323.0173 LP  0  0  0  0  0  0  0  0  0  0  0  0  # atno 13520 bound_to 9019
  122.3429  242.7701  322.8121 LP  0  0  0  0  0  0  0  0  0  0  0  0  # atno 13521 bound_to 9019
  122.3210  240.1043  322.1082 LP  0  0  0  0  0  0  0  0  0  0  0  0  # atno 13522 bound_to 9062
  120.4150  240.9229  325.6058 LP  0  0  0  0  0  0  0  0  0  0  0  0  # atno 13523 bound_to 9100
  112.0857  245.0740  316.5920 LP  0  0  0  0  0  0  0  0  0  0  0  0  # atno 13528 bound_to 8426
  112.1174  243.9641  317.9213 LP  0  0  0  0  0  0  0  0  0  0  0  0  # atno 13529 bound_to 8426
  114.9636  239.0063  317.5232 LP  0  0  0  0  0  0  0  0  0  0  0  0  # atno 13530 bound_to 8363
  115.1416  240.4674  316.6103 LP  0  0  0  0  0  0  0  0  0  0  0  0  # atno 13531 bound_to 8363
  111.5073  248.3030  318.1153 LP  0  0  0  0  0  0  0  0  0  0  0  0  # atno 13532 bound_to 8476
  113.9260  238.1754  322.6210 LP  0  0  0  0  0  0  0  0  0  0  0  0  # atno 13533 bound_to 9073
  114.2685  239.0932  321.3146 LP  0  0  0  0  0  0  0  0  0  0  0  0  # atno 13534 bound_to 9073
  114.9089  248.9355  314.4730 LP  0  0  0  0  0  0  0  0  0  0  0  0  # atno 13535 bound_to 8937
  119.3928  243.9978  314.2483 LP  0  0  0  0  0  0  0  0  0  0  0  0  # atno 13536 bound_to 8977
  119.9483  245.3991  314.8764 LP  0  0  0  0  0  0  0  0  0  0  0  0  # atno 13537 bound_to 8977
  124.2845  247.0762  318.4924 LP  0  0  0  0  0  0  0  0  0  0  0  0  # atno 13538 bound_to 4885
  125.7567  246.8602  317.8196 LP  0  0  0  0  0  0  0  0  0  0  0  0  # atno 13539 bound_to 4885
  108.2225  244.5512  319.1069 LP  0  0  0  0  0  0  0  0  0  0  0  0  # atno 13540 bound_to 5565
  110.3329  244.1839  315.6737 LP  0  0  0  0  0  0  0  0  0  0  0  0  # atno 13541 bound_to 5598
  110.7880  240.2285  317.9691 LP  0  0  0  0  0  0  0  0  0  0  0  0  # atno 13542 bound_to 5639
  111.2584  238.5975  318.3134 LP  0  0  0  0  0  0  0  0  0  0  0  0  # atno 13543 bound_to 5639
  110.6030  238.2332  321.2349 LP  0  0  0  0  0  0  0  0  0  0  0  0  # atno 13544 bound_to 8319
  111.2782  239.4710  320.4111 LP  0  0  0  0  0  0  0  0  0  0  0  0  # atno 13545 bound_to 8319
  113.3956  237.3025  328.1732 LP  0  0  0  0  0  0  0  0  0  0  0  0  # atno 13548 bound_to 9180
  113.5561  238.8572  328.9197 LP  0  0  0  0  0  0  0  0  0  0  0  0  # atno 13549 bound_to 9180
  110.2075  241.1096  315.0028 LP  0  0  0  0  0  0  0  0  0  0  0  0  # atno 13552 bound_to 5636

> <Gold.Score>
     Fitness  S(hb_ext) S(vdw_ext)  S(hb_int)    S(int)      intcor
     34.45      10.54      17.49       0.00      -0.14      -0.76

> <Gold.Goldscore.Fitness>
34.4463

> <Gold.Goldscore.Internal.Vdw>
-0.4982

> <Gold.Goldscore.Internal.Torsion>
-0.4029

> <Gold.Goldscore.External.Vdw>
17.4867

> <Gold.Goldscore.Internal.HBond>
0.0000

> <Gold.Goldscore.External.HBond>
10.5447

> <Gold.Goldscore.Internal.Correction>
-0.7585

> <Gold.Goldscore.Hbonds>
donor molecule, donor type, donor heavy atom, donor atom, acceptor molecule, acceptor atom, score
      P1  H  5572  5580       L1     9  0.01
      P1  H  9073  9082       L1    17  0.05
      L1  H     8    22       P1  5573  0.99
      L1  H    10    23       P1  9184  0.74

> <Gold.Goldscore.Internal.Vdw.Weighted>
-0.4982

> <Gold.Goldscore.Internal.Torsion.Weighted>
-0.4029

> <Gold.Goldscore.External.Vdw.Weighted>
24.0442

> <Gold.Goldscore.Internal.HBond.Weighted>
0.0000

> <Gold.Goldscore.External.HBond.Weighted>
10.5447

> <Gold.Goldscore.Internal.Correction.Weighted>
-0.7585

> <Gold.Rescore>
     Score     S(PLP)   S(hbond)     S(cho)   S(metal)  DE(clash)   DE(tors)     intcor
     -3.26       9.45       2.08       0.00       0.00       0.00       0.03       ----

> <Gold.PLP.Fitness>
-3.2612

> <Gold.PLP.PLP>
9.4514

> <Gold.PLP.part.hbond>
-2.7575

> <Gold.PLP.part.metal>
0.0000

> <Gold.PLP.part.buried>
21.2725

> <Gold.PLP.part.nonpolar>
-17.1911

> <Gold.PLP.part.repulsive>
7.6041

> <Gold.PLP.ligand.clash>
0.0000

> <Gold.PLP.ligand.torsion>
0.0294

> <Gold.PLP.Chemscore.Hbond>
2.0830

> <Gold.PLP.Chemscore.CHOScore>
0.0000

> <Gold.PLP.Chemscore.Metal>
0.0000

> <Gold.Chemscore.Hbonds>
donor molecule, donor type, donor heavy atom, donor atom, acceptor molecule, acceptor atom, score
      L1  H    10    23       P1  9184  0.39
      P1  H  5572  5580       L1     9  0.61
      P1  H  9073  9082       L1    17  0.43

> <Gold.PLP.Chemscore.Internal.Correction>
   9.000000E+99

#       Name:                CT1002167954
#       Creating user name   hitesit
#       Creation time:       Sun Apr 16 22:52:04 2023


#       File generated by GOLD software.
#

@<TRIPOS>MOLECULE
CT1002167954|ligand_prepared|mol2|1|dock3
    29    30     1
SMALL
NO_CHARGES


@<TRIPOS>ATOM
      1 C1         111.2508 245.5395 324.1250 C.3            1 RES1               0.0000
      2 C2         112.7441 245.2487 323.8714 C.ar           1 RES1               0.0000
      3 C3         111.2019 246.7263 325.0827 C.2            1 RES1               0.0000
      4 C4         110.6322 245.8164 322.7592 C.2            1 RES1               0.0000
      5 C5         110.4844 244.3591 324.7660 C.3            1 RES1               0.0000
      6 C6         113.1371 244.0966 323.1969 C.ar           1 RES1               0.0000
      7 C7         113.7382 246.1228 324.3030 C.ar           1 RES1               0.0000
      8 N8         110.8326 247.9356 324.5719 N.am           1 RES1               0.0000
      9 O9         111.5209 246.6111 326.2597 O.2            1 RES1               0.0000
     10 N10        110.1565 247.0778 322.5136 N.am           1 RES1               0.0000
     11 O11        110.5675 244.9582 321.8876 O.2            1 RES1               0.0000
     12 C12        109.0143 244.6499 325.0233 C.3            1 RES1               0.0000
     13 C13        114.4753 243.8295 322.9597 C.ar           1 RES1               0.0000
     14 C14        115.0759 245.8537 324.0649 C.ar           1 RES1               0.0000
     15 C15        110.2565 248.1583 323.3471 C.2            1 RES1               0.0000
     16 C16        115.4454 244.7079 323.3931 C.ar           1 RES1               0.0000
     17 O17        109.8533 249.2746 323.0334 O.2            1 RES1               0.0000
     18 H18        110.5615 243.4873 324.1047 H              1 RES1               0.0000
     19 H19        110.9651 244.1013 325.7179 H              1 RES1               0.0000
     20 H20        112.3880 243.3925 322.8505 H              1 RES1               0.0000
     21 H21        113.4708 247.0298 324.8345 H              1 RES1               0.0000
     22 H22        111.0002 248.7498 325.1545 H              1 RES1               0.0000
     23 H23        109.6841 247.2249 321.6273 H              1 RES1               0.0000
     24 H24        108.5239 243.7894 325.4735 H              1 RES1               0.0000
     25 H25        108.9007 245.4961 325.6978 H              1 RES1               0.0000
     26 H26        108.4995 244.8856 324.0941 H              1 RES1               0.0000
     27 H27        114.7610 242.9257 322.4317 H              1 RES1               0.0000
     28 H28        115.8360 246.5475 324.4084 H              1 RES1               0.0000
     29 H29        116.4936 244.4986 323.2068 H              1 RES1               0.0000
@<TRIPOS>BOND
    1    1    2 1     
    2    1    3 1     
    3    1    4 1     
    4    1    5 1     
    5    2    6 ar    
    6    2    7 ar    
    7    3    8 1     
    8    3    9 2     
    9    4   10 1     
   10    4   11 2     
   11    5   12 1     
   12    5   18 1     
   13    5   19 1     
   14    6   13 ar    
   15    6   20 1     
   16    7   14 ar    
   17    7   21 1     
   18    8   15 1     
   19    8   22 1     
   20   10   15 1     
   21   10   23 1     
   22   12   24 1     
   23   12   25 1     
   24   12   26 1     
   25   13   16 ar    
   26   13   27 1     
   27   14   16 ar    
   28   14   28 1     
   29   15   17 2     
   30   16   29 1     
@<TRIPOS>SUBSTRUCTURE
      1 RES1           1
@<TRIPOS>SET
DONOR_HYDROGENS      STATIC     ATOMS    <user>   **** ""
2 22 23
ATOM$RED        STATIC     ATOMS    COLORGROUP SYSTEM
2 22 23
@<TRIPOS>COMMENT
> <Gold.Version>
2022.3.0

> <Gold.Id.Protein>
unknown|4uch_clean|pdb

> <Gold.Protein.RotatedTorsions>
[ 1282 1268 1269 1270 ] final   69.45 input   42.93 | X-H torsion
[ 12864 12852 12853 12854 ] final -162.68 input  102.46 | X-H torsion
[ 12872 12863 12862 12860 ] final  -89.57 input   59.97 | X-H torsion
[ 12900 12891 12892 12893 ] final    1.74 input   33.49 | X-H torsion
[ 12960 12952 12953 12954 ] final  -39.64 input  127.22 | X-H torsion
[ 13446 13426 13425 13421 ] final   82.05 input   59.98 | X-H torsion
[ 1244 1232 1233 1234 ] final   72.32 input  119.89 | X-H torsion
[ 5550 5545 5544 5541 ] final   -0.21 input   60.01 | X-H torsion
[ 3548 3542 3543 3544 ] final -135.02 input   78.91 | X-H torsion
[ 3570 3563 3564 3565 ] final   29.61 input  104.01 | X-H torsion
[ 3596 3592 3593 3594 ] final  -93.01 input   81.17 | X-H torsion
[ 8428 8423 8424 8425 ] final   94.09 input   41.93 | X-H torsion
[ 8452 8445 8446 8447 ] final   80.38 input   98.48 | X-H torsion
[ 8978 8972 8973 8974 ] final  -10.57 input   32.89 | X-H torsion
[ 8996 8992 8993 8994 ] final   22.47 input   45.98 | X-H torsion
[ 9030 9016 9017 9018 ] final -122.76 input   38.77 | X-H torsion
[ 9074 9062 9063 9064 ] final  153.42 input   99.93 | X-H torsion
[ 9108 9100 9101 9102 ] final -103.54 input   97.82 | X-H torsion
[ 8482 8476 8477 8478 ] final  155.18 input   55.16 | X-H torsion
[ 9082 9073 9072 9070 ] final  -88.86 input   60.02 | X-H torsion
[ 8948 8937 8938 8939 ] final   -0.81 input   49.52 | X-H torsion
[ 8982 8977 8976 8973 ] final   79.80 input   60.00 | X-H torsion
[ 4890 4885 4884 4881 ] final -129.55 input   59.99 | X-H torsion
[ 5574 5565 5566 5567 ] final -144.75 input   50.85 | X-H torsion
[ 5606 5598 5599 5600 ] final -100.19 input  117.92 | X-H torsion
[ 8328 8319 8318 8316 ] final  162.07 input   59.98 | X-H torsion
[ 5644 5636 5637 5638 ] final -111.86 input   69.86 | X-H torsion
[ 13451 13428 13427 13425 ] final -179.28 input   60.01 | X-H torsion
[ 8508 8500 8501 8502 ] final  168.30 input   75.08 | X-H torsion
[ 4906 4901 4902 4903 ] final   61.87 input   29.84 | X-H torsion
[ 13460 1235 1234 1233 ] final   64.36 input    0.00 | X-H torsion
[ 13464 8503 8502 8501 ] final  -69.51 input    0.00 | X-H torsion
[ 13466 12822 12821 12820 ] final  130.03 input   -0.00 | X-H torsion
[ 13469 12855 12854 12853 ] final  -35.89 input   -0.00 | X-H torsion
[ 13474 12894 12893 12892 ] final  168.02 input    0.00 | X-H torsion
[ 13493 5543 5542 5541 ] final  -73.86 input    0.00 | X-H torsion
[ 13497 3502 3501 3500 ] final  -27.77 input   -0.00 | X-H torsion
[ 13500 3545 3544 3543 ] final   32.80 input    0.00 | X-H torsion
[ 13505 8400 8399 8398 ] final -172.57 input   -0.00 | X-H torsion
[ 13509 8448 8447 8446 ] final  152.15 input    0.00 | X-H torsion
[ 13511 8940 8939 8938 ] final  149.27 input    0.00 | X-H torsion
[ 13514 8975 8974 8973 ] final    4.77 input   -0.00 | X-H torsion
[ 13517 8995 8994 8993 ] final  104.09 input    0.00 | X-H torsion
[ 13520 9019 9018 9017 ] final   25.62 input   -0.00 | X-H torsion
[ 13528 8426 8425 8424 ] final   49.11 input    0.00 | X-H torsion
[ 13530 8363 8362 8361 ] final  -77.24 input    0.00 | X-H torsion
[ 13542 5639 5638 5637 ] final  132.35 input    0.00 | X-H torsion
[ 13548 9180 9179 9178 ] final   51.94 input   -0.00 | X-H torsion

> <Gold.Protein.ActiveResidues>
 TRP311  MET341  HIS342  TRP414  ALA417  ARG419  CYS420  VAL421  GLY422  ARG423 
 SER462  ALA463  SER482  GLN483  LEU484  ILE485  ARG486  TRP566  TYR567  LEU569 
 PRO570  ALA571  VAL572  SER573  ASN574  MET575  PHE589  SER590  GLY591  TRP592 
 TYR593  MET594  GLU597  ILE598  ARG601  ASP602  ARG608  TRP683  PHE696  GLU710 
 TYR711  GLN712  PRO713  ASP714  HEM750  H4B760 

> <Gold.Protein.RotatedAtoms>
  106.0014  253.6578  335.0074 H   0  0  0  0  0  0  0  0  0  0  0  0  # atno 1244 bound_to 1232
  105.4592  254.5119  332.7549 H   0  0  0  0  0  0  0  0  0  0  0  0  # atno 1282 bound_to 1268
  118.3704  251.3751  328.5511 H   0  0  0  0  0  0  0  0  0  0  0  0  # atno 3548 bound_to 3542
  121.3755  248.6417  327.5731 H   0  0  0  0  0  0  0  0  0  0  0  0  # atno 3570 bound_to 3563
  123.9543  248.3581  327.7477 H   0  0  0  0  0  0  0  0  0  0  0  0  # atno 3596 bound_to 3592
  124.3478  247.1251  318.4972 H   0  0  0  0  0  0  0  0  0  0  0  0  # atno 4890 bound_to 4885
  121.5213  246.8251  314.5717 H   0  0  0  0  0  0  0  0  0  0  0  0  # atno 4906 bound_to 4901
  106.5969  243.7416  319.7816 H   0  0  0  0  0  0  0  0  0  0  0  0  # atno 5550 bound_to 5545
  108.2537  245.0746  318.7247 H   0  0  0  0  0  0  0  0  0  0  0  0  # atno 5574 bound_to 5565
  109.7494  243.7068  315.8785 H   0  0  0  0  0  0  0  0  0  0  0  0  # atno 5606 bound_to 5598
  110.4315  240.9705  314.4058 H   0  0  0  0  0  0  0  0  0  0  0  0  # atno 5644 bound_to 5636
  112.1087  239.3345  321.1417 H   0  0  0  0  0  0  0  0  0  0  0  0  # atno 8328 bound_to 8319
  114.6849  242.2350  317.7909 H   0  0  0  0  0  0  0  0  0  0  0  0  # atno 8428 bound_to 8423
  114.8077  246.6177  318.2645 H   0  0  0  0  0  0  0  0  0  0  0  0  # atno 8452 bound_to 8445
  111.4215  246.8815  317.3806 H   0  0  0  0  0  0  0  0  0  0  0  0  # atno 8482 bound_to 8476
  108.8070  248.5734  317.7079 H   0  0  0  0  0  0  0  0  0  0  0  0  # atno 8508 bound_to 8500
  114.6395  248.3938  315.6425 H   0  0  0  0  0  0  0  0  0  0  0  0  # atno 8948 bound_to 8937
  118.8079  247.9400  316.3911 H   0  0  0  0  0  0  0  0  0  0  0  0  # atno 8978 bound_to 8972
  119.9993  244.4947  314.8215 H   0  0  0  0  0  0  0  0  0  0  0  0  # atno 8982 bound_to 8977
  119.4246  244.2218  318.3261 H   0  0  0  0  0  0  0  0  0  0  0  0  # atno 8996 bound_to 8992
  121.5147  243.1935  319.2867 H   0  0  0  0  0  0  0  0  0  0  0  0  # atno 9030 bound_to 9016
  120.9033  239.6728  321.3093 H   0  0  0  0  0  0  0  0  0  0  0  0  # atno 9074 bound_to 9062
  113.9031  238.3148  322.8230 H   0  0  0  0  0  0  0  0  0  0  0  0  # atno 9082 bound_to 9073
  121.7652  240.0797  324.8911 H   0  0  0  0  0  0  0  0  0  0  0  0  # atno 9108 bound_to 9100
  109.8622  256.1408  324.0256 H   0  0  0  0  0  0  0  0  0  0  0  0  # atno 12864 bound_to 12852
  110.0875  251.4328  328.6353 H   0  0  0  0  0  0  0  0  0  0  0  0  # atno 12872 bound_to 12863
  105.7401  254.7304  322.5690 H   0  0  0  0  0  0  0  0  0  0  0  0  # atno 12900 bound_to 12891
  100.8838  253.4767  320.4530 H   0  0  0  0  0  0  0  0  0  0  0  0  # atno 12960 bound_to 12952
  109.1336  246.4140  337.3053 H   0  0  0  0  0  0  0  0  0  0  0  0  # atno 13446 bound_to 13426
  109.4140  250.7261  337.4150 H   0  0  0  0  0  0  0  0  0  0  0  0  # atno 13451 bound_to 13428
  108.4312  253.4507  330.9495 LP  0  0  0  0  0  0  0  0  0  0  0  0  # atno 13460 bound_to 1235
  108.8999  254.9636  331.6505 LP  0  0  0  0  0  0  0  0  0  0  0  0  # atno 13461 bound_to 1235
  107.2100  254.5555  332.7074 LP  0  0  0  0  0  0  0  0  0  0  0  0  # atno 13462 bound_to 1268
  106.4782  252.8756  318.5452 LP  0  0  0  0  0  0  0  0  0  0  0  0  # atno 13464 bound_to 8503
  107.0648  252.7008  320.1655 LP  0  0  0  0  0  0  0  0  0  0  0  0  # atno 13465 bound_to 8503
  109.8135  255.1372  321.7326 LP  0  0  0  0  0  0  0  0  0  0  0  0  # atno 13466 bound_to 12822
  109.8377  256.6234  320.8433 LP  0  0  0  0  0  0  0  0  0  0  0  0  # atno 13467 bound_to 12822
  108.8706  257.5293  323.6596 LP  0  0  0  0  0  0  0  0  0  0  0  0  # atno 13468 bound_to 12852
  106.9327  258.1464  323.5524 LP  0  0  0  0  0  0  0  0  0  0  0  0  # atno 13469 bound_to 12855
  106.4026  258.1087  321.9039 LP  0  0  0  0  0  0  0  0  0  0  0  0  # atno 13470 bound_to 12855
  111.2859  252.5186  328.4552 LP  0  0  0  0  0  0  0  0  0  0  0  0  # atno 13471 bound_to 12863
  111.1224  251.2941  327.3872 LP  0  0  0  0  0  0  0  0  0  0  0  0  # atno 13472 bound_to 12863
  106.7159  256.1253  322.1749 LP  0  0  0  0  0  0  0  0  0  0  0  0  # atno 13473 bound_to 12891
  102.8210  253.6153  322.1970 LP  0  0  0  0  0  0  0  0  0  0  0  0  # atno 13474 bound_to 12894
  104.5416  253.7514  322.0517 LP  0  0  0  0  0  0  0  0  0  0  0  0  # atno 13475 bound_to 12894
  100.7966  252.3949  321.8236 LP  0  0  0  0  0  0  0  0  0  0  0  0  # atno 13476 bound_to 12952
  109.0914  245.8204  335.7909 LP  0  0  0  0  0  0  0  0  0  0  0  0  # atno 13490 bound_to 13426
  107.7382  246.4337  336.4687 LP  0  0  0  0  0  0  0  0  0  0  0  0  # atno 13491 bound_to 13426
  107.6524  253.4437  335.5479 LP  0  0  0  0  0  0  0  0  0  0  0  0  # atno 13492 bound_to 1232
  109.2965  246.9746  318.2959 LP  0  0  0  0  0  0  0  0  0  0  0  0  # atno 13493 bound_to 5543
  109.6171  246.0500  319.7250 LP  0  0  0  0  0  0  0  0  0  0  0  0  # atno 13494 bound_to 5543
  105.3332  243.9294  320.7902 LP  0  0  0  0  0  0  0  0  0  0  0  0  # atno 13495 bound_to 5545
  106.8580  244.1187  321.3433 LP  0  0  0  0  0  0  0  0  0  0  0  0  # atno 13496 bound_to 5545
  117.8373  249.7892  330.3936 LP  0  0  0  0  0  0  0  0  0  0  0  0  # atno 13497 bound_to 3502
  118.3287  249.2748  328.8144 LP  0  0  0  0  0  0  0  0  0  0  0  0  # atno 13498 bound_to 3502
  119.8288  252.3340  328.5223 LP  0  0  0  0  0  0  0  0  0  0  0  0  # atno 13499 bound_to 3542
  122.0030  252.0284  328.1387 LP  0  0  0  0  0  0  0  0  0  0  0  0  # atno 13500 bound_to 3545
  123.2243  250.8224  327.9063 LP  0  0  0  0  0  0  0  0  0  0  0  0  # atno 13501 bound_to 3545
  120.9834  249.5607  329.0120 LP  0  0  0  0  0  0  0  0  0  0  0  0  # atno 13502 bound_to 3563
  122.6963  248.4852  326.5419 LP  0  0  0  0  0  0  0  0  0  0  0  0  # atno 13503 bound_to 3592
  117.1227  244.4592  318.1004 LP  0  0  0  0  0  0  0  0  0  0  0  0  # atno 13505 bound_to 8400
  118.1430  243.1902  318.6908 LP  0  0  0  0  0  0  0  0  0  0  0  0  # atno 13506 bound_to 8400
  115.5339  243.1896  318.9792 LP  0  0  0  0  0  0  0  0  0  0  0  0  # atno 13507 bound_to 8423
  113.7387  245.2452  318.0947 LP  0  0  0  0  0  0  0  0  0  0  0  0  # atno 13508 bound_to 8445
  112.7828  248.8238  316.1159 LP  0  0  0  0  0  0  0  0  0  0  0  0  # atno 13509 bound_to 8448
  113.8398  248.9486  317.4824 LP  0  0  0  0  0  0  0  0  0  0  0  0  # atno 13510 bound_to 8448
  116.0151  246.1259  317.0358 LP  0  0  0  0  0  0  0  0  0  0  0  0  # atno 13511 bound_to 8940
  115.3347  247.6679  317.4346 LP  0  0  0  0  0  0  0  0  0  0  0  0  # atno 13512 bound_to 8940
  117.3076  247.3414  315.7261 LP  0  0  0  0  0  0  0  0  0  0  0  0  # atno 13513 bound_to 8972
  120.5231  247.1907  316.0262 LP  0  0  0  0  0  0  0  0  0  0  0  0  # atno 13514 bound_to 8975
  121.7196  246.4061  317.0023 LP  0  0  0  0  0  0  0  0  0  0  0  0  # atno 13515 bound_to 8975
  119.8864  245.7987  317.7300 LP  0  0  0  0  0  0  0  0  0  0  0  0  # atno 13516 bound_to 8992
  122.2628  242.1223  317.4377 LP  0  0  0  0  0  0  0  0  0  0  0  0  # atno 13517 bound_to 8995
  120.5518  242.2562  317.6712 LP  0  0  0  0  0  0  0  0  0  0  0  0  # atno 13518 bound_to 8995
  122.5900  243.5112  320.6255 LP  0  0  0  0  0  0  0  0  0  0  0  0  # atno 13519 bound_to 9016
  121.3868  243.1382  322.2420 LP  0  0  0  0  0  0  0  0  0  0  0  0  # atno 13520 bound_to 9019
  121.6114  242.0708  323.5875 LP  0  0  0  0  0  0  0  0  0  0  0  0  # atno 13521 bound_to 9019
  122.1745  240.5418  322.1348 LP  0  0  0  0  0  0  0  0  0  0  0  0  # atno 13522 bound_to 9062
  120.3666  240.8473  325.6037 LP  0  0  0  0  0  0  0  0  0  0  0  0  # atno 13523 bound_to 9100
  112.3010  243.7300  317.5527 LP  0  0  0  0  0  0  0  0  0  0  0  0  # atno 13528 bound_to 8426
  111.9022  245.3081  316.9607 LP  0  0  0  0  0  0  0  0  0  0  0  0  # atno 13529 bound_to 8426
  115.1993  240.2412  316.3782 LP  0  0  0  0  0  0  0  0  0  0  0  0  # atno 13530 bound_to 8363
  114.9059  239.2324  317.7552 LP  0  0  0  0  0  0  0  0  0  0  0  0  # atno 13531 bound_to 8363
  110.8779  248.2094  318.3756 LP  0  0  0  0  0  0  0  0  0  0  0  0  # atno 13532 bound_to 8476
  114.2423  238.8476  321.3233 LP  0  0  0  0  0  0  0  0  0  0  0  0  # atno 13533 bound_to 9073
  114.1106  239.9070  322.5590 LP  0  0  0  0  0  0  0  0  0  0  0  0  # atno 13534 bound_to 9073
  114.9152  249.9708  314.9382 LP  0  0  0  0  0  0  0  0  0  0  0  0  # atno 13535 bound_to 8937
  119.2750  245.8762  314.3576 LP  0  0  0  0  0  0  0  0  0  0  0  0  # atno 13536 bound_to 8977
  118.7638  244.4436  313.7636 LP  0  0  0  0  0  0  0  0  0  0  0  0  # atno 13537 bound_to 8977
  125.7676  246.7949  317.7744 LP  0  0  0  0  0  0  0  0  0  0  0  0  # atno 13538 bound_to 4885
  124.5009  245.7803  317.5942 LP  0  0  0  0  0  0  0  0  0  0  0  0  # atno 13539 bound_to 4885
  107.5141  243.6934  317.9505 LP  0  0  0  0  0  0  0  0  0  0  0  0  # atno 13540 bound_to 5565
  111.3852  243.1287  316.0835 LP  0  0  0  0  0  0  0  0  0  0  0  0  # atno 13541 bound_to 5598
  110.2956  239.7845  318.4285 LP  0  0  0  0  0  0  0  0  0  0  0  0  # atno 13542 bound_to 5639
  111.7508  239.0414  317.8540 LP  0  0  0  0  0  0  0  0  0  0  0  0  # atno 13543 bound_to 5639
  111.1671  238.1443  321.7299 LP  0  0  0  0  0  0  0  0  0  0  0  0  # atno 13544 bound_to 8319
  110.6692  239.0249  320.4480 LP  0  0  0  0  0  0  0  0  0  0  0  0  # atno 13545 bound_to 8319
  113.4225  238.8289  328.1151 LP  0  0  0  0  0  0  0  0  0  0  0  0  # atno 13548 bound_to 9180
  113.5291  237.3308  328.9778 LP  0  0  0  0  0  0  0  0  0  0  0  0  # atno 13549 bound_to 9180
  111.6703  241.0100  315.6405 LP  0  0  0  0  0  0  0  0  0  0  0  0  # atno 13552 bound_to 5636

> <Gold.Score>
     Fitness  S(hb_ext) S(vdw_ext)  S(hb_int)    S(int)      intcor
     34.08       4.11      23.07       0.00      -1.74      -0.77

> <Gold.Goldscore.Fitness>
34.0825

> <Gold.Goldscore.Internal.Vdw>
-2.1410

> <Gold.Goldscore.Internal.Torsion>
-0.3681

> <Gold.Goldscore.External.Vdw>
23.0650

> <Gold.Goldscore.Internal.HBond>
0.0000

> <Gold.Goldscore.External.HBond>
4.1118

> <Gold.Goldscore.Internal.Correction>
-0.7653

> <Gold.Goldscore.Hbonds>
donor molecule, donor type, donor heavy atom, donor atom, acceptor molecule, acceptor atom, score
      L1  H     8    22       P1 13311  0.67
      L1  H    10    23       P1  5543  0.05

> <Gold.Goldscore.Internal.Vdw.Weighted>
-2.1410

> <Gold.Goldscore.Internal.Torsion.Weighted>
-0.3681

> <Gold.Goldscore.External.Vdw.Weighted>
31.7144

> <Gold.Goldscore.Internal.HBond.Weighted>
0.0000

> <Gold.Goldscore.External.HBond.Weighted>
4.1118

> <Gold.Goldscore.Internal.Correction.Weighted>
-0.7653

> <Gold.Rescore>
     Score     S(PLP)   S(hbond)     S(cho)   S(metal)  DE(clash)   DE(tors)     intcor
     23.34     -22.32       0.89       0.00       0.00       0.46       0.60       ----

> <Gold.PLP.Fitness>
23.3360

> <Gold.PLP.PLP>
-22.3184

> <Gold.PLP.part.hbond>
-2.7076

> <Gold.PLP.part.metal>
0.0000

> <Gold.PLP.part.buried>
-2.3391

> <Gold.PLP.part.nonpolar>
-23.0988

> <Gold.PLP.part.repulsive>
4.3446

> <Gold.PLP.ligand.clash>
0.4641

> <Gold.PLP.ligand.torsion>
0.5973

> <Gold.PLP.Chemscore.Hbond>
0.8921

> <Gold.PLP.Chemscore.CHOScore>
0.0000

> <Gold.PLP.Chemscore.Metal>
0.0000

> <Gold.Chemscore.Hbonds>
donor molecule, donor type, donor heavy atom, donor atom, acceptor molecule, acceptor atom, score
      L1  H     8    22       P1 13311  0.42
      P1  H  5572  5581       L1    11  0.08

> <Gold.PLP.Chemscore.Internal.Correction>
   9.000000E+99

#       Name:                CT1002167954
#       Creating user name   hitesit
#       Creation time:       Sun Apr 16 22:52:03 2023


#       File generated by GOLD software.
#

@<TRIPOS>MOLECULE
CT1002167954|ligand_prepared|mol2|1|dock2
    29    30     1
SMALL
NO_CHARGES


@<TRIPOS>ATOM
      1 C1         113.7319 244.5472 323.9500 C.3            1 RES1               0.0000
      2 C2         115.0414 245.0382 323.2998 C.ar           1 RES1               0.0000
      3 C3         112.9579 243.8172 322.8562 C.2            1 RES1               0.0000
      4 C4         114.1430 243.6594 325.1194 C.2            1 RES1               0.0000
      5 C5         112.8439 245.6859 324.5037 C.3            1 RES1               0.0000
      6 C6         115.7925 246.0479 323.8941 C.ar           1 RES1               0.0000
      7 C7         115.5117 244.4904 322.1093 C.ar           1 RES1               0.0000
      8 N8         112.9084 242.4558 322.9184 N.am           1 RES1               0.0000
      9 O9         112.4324 244.4245 321.9314 O.2            1 RES1               0.0000
     10 N10        113.8348 242.3259 325.0526 N.am           1 RES1               0.0000
     11 O11        114.7456 244.0997 326.0907 O.2            1 RES1               0.0000
     12 C12        111.4810 245.2192 324.9903 C.3            1 RES1               0.0000
     13 C13        116.9725 246.4918 323.3207 C.ar           1 RES1               0.0000
     14 C14        116.6920 244.9359 321.5375 C.ar           1 RES1               0.0000
     15 C15        113.2635 241.6783 323.9913 C.2            1 RES1               0.0000
     16 C16        117.4233 245.9359 322.1424 C.ar           1 RES1               0.0000
     17 O17        113.0674 240.4664 323.9842 O.2            1 RES1               0.0000
     18 H18        113.3692 246.1703 325.3360 H              1 RES1               0.0000
     19 H19        112.6998 246.4359 323.7162 H              1 RES1               0.0000
     20 H20        115.4523 246.4990 324.8203 H              1 RES1               0.0000
     21 H21        114.9524 243.7033 321.6151 H              1 RES1               0.0000
     22 H22        112.5768 241.9709 322.0906 H              1 RES1               0.0000
     23 H23        114.0514 241.7640 325.8697 H              1 RES1               0.0000
     24 H24        110.8987 246.0569 325.3682 H              1 RES1               0.0000
     25 H25        110.9209 244.7547 324.1813 H              1 RES1               0.0000
     26 H26        111.5863 244.4907 325.7915 H              1 RES1               0.0000
     27 H27        117.5437 247.2800 323.8001 H              1 RES1               0.0000
     28 H28        117.0426 244.4959 320.6097 H              1 RES1               0.0000
     29 H29        118.3479 246.2835 321.6937 H              1 RES1               0.0000
@<TRIPOS>BOND
    1    1    2 1     
    2    1    3 1     
    3    1    4 1     
    4    1    5 1     
    5    2    6 ar    
    6    2    7 ar    
    7    3    8 1     
    8    3    9 2     
    9    4   10 1     
   10    4   11 2     
   11    5   12 1     
   12    5   18 1     
   13    5   19 1     
   14    6   13 ar    
   15    6   20 1     
   16    7   14 ar    
   17    7   21 1     
   18    8   15 1     
   19    8   22 1     
   20   10   15 1     
   21   10   23 1     
   22   12   24 1     
   23   12   25 1     
   24   12   26 1     
   25   13   16 ar    
   26   13   27 1     
   27   14   16 ar    
   28   14   28 1     
   29   15   17 2     
   30   16   29 1     
@<TRIPOS>SUBSTRUCTURE
      1 RES1           1
@<TRIPOS>SET
DONOR_HYDROGENS      STATIC     ATOMS    <user>   **** ""
2 22 23
ATOM$RED        STATIC     ATOMS    COLORGROUP SYSTEM
2 22 23
@<TRIPOS>COMMENT
> <Gold.Version>
2022.3.0

> <Gold.Id.Protein>
unknown|4uch_clean|pdb

> <Gold.Protein.RotatedTorsions>
[ 1282 1268 1269 1270 ] final -150.20 input   42.93 | X-H torsion
[ 12864 12852 12853 12854 ] final -131.43 input  102.46 | X-H torsion
[ 12872 12863 12862 12860 ] final -154.89 input   59.97 | X-H torsion
[ 12900 12891 12892 12893 ] final  -15.98 input   33.49 | X-H torsion
[ 12960 12952 12953 12954 ] final -126.20 input  127.22 | X-H torsion
[ 13446 13426 13425 13421 ] final    9.14 input   59.98 | X-H torsion
[ 1244 1232 1233 1234 ] final  -22.87 input  119.89 | X-H torsion
[ 5550 5545 5544 5541 ] final  120.93 input   60.01 | X-H torsion
[ 3548 3542 3543 3544 ] final    5.94 input   78.91 | X-H torsion
[ 3570 3563 3564 3565 ] final  173.24 input  104.01 | X-H torsion
[ 3596 3592 3593 3594 ] final -129.51 input   81.17 | X-H torsion
[ 8428 8423 8424 8425 ] final   -1.77 input   41.93 | X-H torsion
[ 8452 8445 8446 8447 ] final -171.75 input   98.48 | X-H torsion
[ 8978 8972 8973 8974 ] final  -92.63 input   32.89 | X-H torsion
[ 8996 8992 8993 8994 ] final -129.60 input   45.98 | X-H torsion
[ 9030 9016 9017 9018 ] final   -8.90 input   38.77 | X-H torsion
[ 9074 9062 9063 9064 ] final   22.56 input   99.93 | X-H torsion
[ 9108 9100 9101 9102 ] final  142.65 input   97.82 | X-H torsion
[ 8482 8476 8477 8478 ] final   49.27 input   55.16 | X-H torsion
[ 9082 9073 9072 9070 ] final  -10.01 input   60.02 | X-H torsion
[ 8948 8937 8938 8939 ] final  -83.20 input   49.52 | X-H torsion
[ 8982 8977 8976 8973 ] final   93.60 input   60.00 | X-H torsion
[ 4890 4885 4884 4881 ] final   71.31 input   59.99 | X-H torsion
[ 5574 5565 5566 5567 ] final   81.97 input   50.85 | X-H torsion
[ 5606 5598 5599 5600 ] final  -49.69 input  117.92 | X-H torsion
[ 8328 8319 8318 8316 ] final -138.49 input   59.98 | X-H torsion
[ 5644 5636 5637 5638 ] final  117.48 input   69.86 | X-H torsion
[ 13451 13428 13427 13425 ] final  -95.06 input   60.01 | X-H torsion
[ 8508 8500 8501 8502 ] final   70.18 input   75.08 | X-H torsion
[ 4906 4901 4902 4903 ] final  -73.72 input   29.84 | X-H torsion
[ 13460 1235 1234 1233 ] final  155.28 input    0.00 | X-H torsion
[ 13464 8503 8502 8501 ] final -101.87 input    0.00 | X-H torsion
[ 13466 12822 12821 12820 ] final   85.27 input   -0.00 | X-H torsion
[ 13469 12855 12854 12853 ] final -114.24 input   -0.00 | X-H torsion
[ 13474 12894 12893 12892 ] final  -50.11 input    0.00 | X-H torsion
[ 13493 5543 5542 5541 ] final -158.13 input    0.00 | X-H torsion
[ 13497 3502 3501 3500 ] final   -8.55 input   -0.00 | X-H torsion
[ 13500 3545 3544 3543 ] final  131.76 input    0.00 | X-H torsion
[ 13505 8400 8399 8398 ] final  155.07 input   -0.00 | X-H torsion
[ 13509 8448 8447 8446 ] final -150.92 input    0.00 | X-H torsion
[ 13511 8940 8939 8938 ] final   26.18 input    0.00 | X-H torsion
[ 13514 8975 8974 8973 ] final   20.25 input   -0.00 | X-H torsion
[ 13517 8995 8994 8993 ] final   68.14 input    0.00 | X-H torsion
[ 13520 9019 9018 9017 ] final  127.13 input   -0.00 | X-H torsion
[ 13528 8426 8425 8424 ] final -111.28 input    0.00 | X-H torsion
[ 13530 8363 8362 8361 ] final  178.80 input    0.00 | X-H torsion
[ 13542 5639 5638 5637 ] final  100.16 input    0.00 | X-H torsion
[ 13548 9180 9179 9178 ] final  127.70 input   -0.00 | X-H torsion

> <Gold.Protein.ActiveResidues>
 TRP311  MET341  HIS342  TRP414  ALA417  ARG419  CYS420  VAL421  GLY422  ARG423 
 SER462  ALA463  SER482  GLN483  LEU484  ILE485  ARG486  TRP566  TYR567  LEU569 
 PRO570  ALA571  VAL572  SER573  ASN574  MET575  PHE589  SER590  GLY591  TRP592 
 TYR593  MET594  GLU597  ILE598  ARG601  ASP602  ARG608  TRP683  PHE696  GLU710 
 TYR711  GLN712  PRO713  ASP714  HEM750  H4B760 

> <Gold.Protein.RotatedAtoms>
  107.1018  254.3727  335.0706 H   0  0  0  0  0  0  0  0  0  0  0  0  # atno 1244 bound_to 1232
  107.0333  254.2391  332.2344 H   0  0  0  0  0  0  0  0  0  0  0  0  # atno 1282 bound_to 1268
  119.8413  251.9970  328.9984 H   0  0  0  0  0  0  0  0  0  0  0  0  # atno 3548 bound_to 3542
  120.7978  249.0547  329.1122 H   0  0  0  0  0  0  0  0  0  0  0  0  # atno 3570 bound_to 3563
  123.7013  247.8675  327.7087 H   0  0  0  0  0  0  0  0  0  0  0  0  # atno 3596 bound_to 3592
  125.6172  246.2565  317.4857 H   0  0  0  0  0  0  0  0  0  0  0  0  # atno 4890 bound_to 4885
  122.5484  248.0479  314.9195 H   0  0  0  0  0  0  0  0  0  0  0  0  # atno 4906 bound_to 4901
  106.8395  244.1213  321.3495 H   0  0  0  0  0  0  0  0  0  0  0  0  # atno 5550 bound_to 5545
  107.7119  243.5506  318.5993 H   0  0  0  0  0  0  0  0  0  0  0  0  # atno 5574 bound_to 5565
  109.8114  243.0117  316.1625 H   0  0  0  0  0  0  0  0  0  0  0  0  # atno 5606 bound_to 5598
  111.9361  240.8551  314.9777 H   0  0  0  0  0  0  0  0  0  0  0  0  # atno 5644 bound_to 5636
  111.4738  239.5237  320.4908 H   0  0  0  0  0  0  0  0  0  0  0  0  # atno 8328 bound_to 8319
  114.3991  242.9393  318.8509 H   0  0  0  0  0  0  0  0  0  0  0  0  # atno 8428 bound_to 8423
  114.2728  245.4782  318.9431 H   0  0  0  0  0  0  0  0  0  0  0  0  # atno 8452 bound_to 8445
  110.3422  247.3296  318.1620 H   0  0  0  0  0  0  0  0  0  0  0  0  # atno 8482 bound_to 8476
  109.5235  249.2207  318.6222 H   0  0  0  0  0  0  0  0  0  0  0  0  # atno 8508 bound_to 8500
  114.8867  248.7146  314.5467 H   0  0  0  0  0  0  0  0  0  0  0  0  # atno 8948 bound_to 8937
  117.7477  247.8667  316.8518 H   0  0  0  0  0  0  0  0  0  0  0  0  # atno 8978 bound_to 8972
  119.9105  244.3115  314.7256 H   0  0  0  0  0  0  0  0  0  0  0  0  # atno 8982 bound_to 8977
  119.9883  245.5540  317.4012 H   0  0  0  0  0  0  0  0  0  0  0  0  # atno 8996 bound_to 8992
  121.6419  243.5170  320.7220 H   0  0  0  0  0  0  0  0  0  0  0  0  # atno 9030 bound_to 9016
  122.3196  239.8347  322.0504 H   0  0  0  0  0  0  0  0  0  0  0  0  # atno 9074 bound_to 9062
  113.9768  239.4806  323.0451 H   0  0  0  0  0  0  0  0  0  0  0  0  # atno 9082 bound_to 9073
  121.1761  241.3234  325.4347 H   0  0  0  0  0  0  0  0  0  0  0  0  # atno 9108 bound_to 9100
  109.9058  256.2093  323.5591 H   0  0  0  0  0  0  0  0  0  0  0  0  # atno 12864 bound_to 12852
  110.6047  252.2546  328.9144 H   0  0  0  0  0  0  0  0  0  0  0  0  # atno 12872 bound_to 12863
  105.6840  254.8838  322.7869 H   0  0  0  0  0  0  0  0  0  0  0  0  # atno 12900 bound_to 12891
  101.7021  252.7792  321.0157 H   0  0  0  0  0  0  0  0  0  0  0  0  # atno 12960 bound_to 12952
  109.5375  245.9441  336.3817 H   0  0  0  0  0  0  0  0  0  0  0  0  # atno 13446 bound_to 13426
  110.4211  250.1891  336.8928 H   0  0  0  0  0  0  0  0  0  0  0  0  # atno 13451 bound_to 13428
  108.1523  254.6367  330.7504 LP  0  0  0  0  0  0  0  0  0  0  0  0  # atno 13460 bound_to 1235
  109.1789  253.7776  331.8495 LP  0  0  0  0  0  0  0  0  0  0  0  0  # atno 13461 bound_to 1235
  105.6966  254.8178  333.2078 LP  0  0  0  0  0  0  0  0  0  0  0  0  # atno 13462 bound_to 1268
  106.7995  253.2298  318.6109 LP  0  0  0  0  0  0  0  0  0  0  0  0  # atno 13464 bound_to 8503
  106.7435  252.3467  320.0998 LP  0  0  0  0  0  0  0  0  0  0  0  0  # atno 13465 bound_to 8503
  110.4267  255.3438  321.6055 LP  0  0  0  0  0  0  0  0  0  0  0  0  # atno 13466 bound_to 12822
  109.2245  256.4168  320.9704 LP  0  0  0  0  0  0  0  0  0  0  0  0  # atno 13467 bound_to 12822
  108.8276  257.4617  324.1193 LP  0  0  0  0  0  0  0  0  0  0  0  0  # atno 13468 bound_to 12852
  105.9144  258.1011  323.1546 LP  0  0  0  0  0  0  0  0  0  0  0  0  # atno 13469 bound_to 12855
  107.4209  258.1541  322.3016 LP  0  0  0  0  0  0  0  0  0  0  0  0  # atno 13470 bound_to 12855
  111.5657  251.9985  327.6265 LP  0  0  0  0  0  0  0  0  0  0  0  0  # atno 13471 bound_to 12863
  110.3217  250.9865  327.9347 LP  0  0  0  0  0  0  0  0  0  0  0  0  # atno 13472 bound_to 12863
  106.7708  255.9755  321.9620 LP  0  0  0  0  0  0  0  0  0  0  0  0  # atno 13473 bound_to 12891
  104.3302  253.5524  321.5660 LP  0  0  0  0  0  0  0  0  0  0  0  0  # atno 13474 bound_to 12894
  103.0323  253.8143  322.6826 LP  0  0  0  0  0  0  0  0  0  0  0  0  # atno 13475 bound_to 12894
   99.9986  253.0751  321.2749 LP  0  0  0  0  0  0  0  0  0  0  0  0  # atno 13476 bound_to 12952
  108.0117  246.1156  335.8433 LP  0  0  0  0  0  0  0  0  0  0  0  0  # atno 13490 bound_to 13426
  108.4108  246.6121  337.3469 LP  0  0  0  0  0  0  0  0  0  0  0  0  # atno 13491 bound_to 13426
  106.5878  252.7521  335.4867 LP  0  0  0  0  0  0  0  0  0  0  0  0  # atno 13492 bound_to 1232
  109.9760  246.0526  318.4918 LP  0  0  0  0  0  0  0  0  0  0  0  0  # atno 13493 bound_to 5543
  108.9375  246.9720  319.5292 LP  0  0  0  0  0  0  0  0  0  0  0  0  # atno 13494 bound_to 5543
  106.6165  243.7408  319.7828 LP  0  0  0  0  0  0  0  0  0  0  0  0  # atno 13495 bound_to 5545
  105.3305  243.9250  320.7721 LP  0  0  0  0  0  0  0  0  0  0  0  0  # atno 13496 bound_to 5545
  117.5837  249.8075  330.2557 LP  0  0  0  0  0  0  0  0  0  0  0  0  # atno 13497 bound_to 3502
  118.5823  249.2565  328.9522 LP  0  0  0  0  0  0  0  0  0  0  0  0  # atno 13498 bound_to 3502
  118.3812  251.7220  328.0821 LP  0  0  0  0  0  0  0  0  0  0  0  0  # atno 13499 bound_to 3542
  122.7983  251.2588  328.8520 LP  0  0  0  0  0  0  0  0  0  0  0  0  # atno 13500 bound_to 3545
  122.4290  251.5919  327.1929 LP  0  0  0  0  0  0  0  0  0  0  0  0  # atno 13501 bound_to 3545
  121.5400  249.1628  327.5291 LP  0  0  0  0  0  0  0  0  0  0  0  0  # atno 13502 bound_to 3563
  122.9437  248.9650  326.5799 LP  0  0  0  0  0  0  0  0  0  0  0  0  # atno 13503 bound_to 3592
  117.2672  244.2112  317.7123 LP  0  0  0  0  0  0  0  0  0  0  0  0  # atno 13505 bound_to 8400
  117.9986  243.4382  319.0789 LP  0  0  0  0  0  0  0  0  0  0  0  0  # atno 13506 bound_to 8400
  115.8156  242.4952  317.9341 LP  0  0  0  0  0  0  0  0  0  0  0  0  # atno 13507 bound_to 8423
  114.2608  246.3574  317.4324 LP  0  0  0  0  0  0  0  0  0  0  0  0  # atno 13508 bound_to 8445
  112.6585  249.4366  316.6549 LP  0  0  0  0  0  0  0  0  0  0  0  0  # atno 13509 bound_to 8448
  113.9642  248.3357  316.9434 LP  0  0  0  0  0  0  0  0  0  0  0  0  # atno 13510 bound_to 8448
  115.0836  247.2944  316.7430 LP  0  0  0  0  0  0  0  0  0  0  0  0  # atno 13511 bound_to 8940
  116.2663  246.4994  317.7274 LP  0  0  0  0  0  0  0  0  0  0  0  0  # atno 13512 bound_to 8940
  118.3465  247.4132  315.2747 LP  0  0  0  0  0  0  0  0  0  0  0  0  # atno 13513 bound_to 8972
  120.5116  247.3332  316.2105 LP  0  0  0  0  0  0  0  0  0  0  0  0  # atno 13514 bound_to 8975
  121.7310  246.2636  316.8181 LP  0  0  0  0  0  0  0  0  0  0  0  0  # atno 13515 bound_to 8975
  119.3364  244.4986  318.6327 LP  0  0  0  0  0  0  0  0  0  0  0  0  # atno 13516 bound_to 8992
  122.0871  242.5298  317.1398 LP  0  0  0  0  0  0  0  0  0  0  0  0  # atno 13517 bound_to 8995
  120.7276  241.8487  317.9692 LP  0  0  0  0  0  0  0  0  0  0  0  0  # atno 13518 bound_to 8995
  122.4651  243.1936  319.2163 LP  0  0  0  0  0  0  0  0  0  0  0  0  # atno 13519 bound_to 9016
  120.6825  242.3790  323.0945 LP  0  0  0  0  0  0  0  0  0  0  0  0  # atno 13520 bound_to 9019
  122.3157  242.8299  322.7349 LP  0  0  0  0  0  0  0  0  0  0  0  0  # atno 13521 bound_to 9019
  120.7894  240.3835  321.4101 LP  0  0  0  0  0  0  0  0  0  0  0  0  # atno 13522 bound_to 9062
  120.9430  239.6302  325.0717 LP  0  0  0  0  0  0  0  0  0  0  0  0  # atno 13523 bound_to 9100
  112.0118  245.1883  316.7144 LP  0  0  0  0  0  0  0  0  0  0  0  0  # atno 13528 bound_to 8426
  112.1913  243.8498  317.7989 LP  0  0  0  0  0  0  0  0  0  0  0  0  # atno 13529 bound_to 8426
  114.8947  240.2981  317.7071 LP  0  0  0  0  0  0  0  0  0  0  0  0  # atno 13530 bound_to 8363
  115.2106  239.1756  316.4263 LP  0  0  0  0  0  0  0  0  0  0  0  0  # atno 13531 bound_to 8363
  111.9385  247.7691  317.6077 LP  0  0  0  0  0  0  0  0  0  0  0  0  # atno 13532 bound_to 8476
  113.9954  238.0832  322.2116 LP  0  0  0  0  0  0  0  0  0  0  0  0  # atno 13533 bound_to 9073
  114.2834  239.4972  321.4471 LP  0  0  0  0  0  0  0  0  0  0  0  0  # atno 13534 bound_to 9073
  114.6749  249.6589  316.0035 LP  0  0  0  0  0  0  0  0  0  0  0  0  # atno 13535 bound_to 8937
  119.4482  245.8558  314.5024 LP  0  0  0  0  0  0  0  0  0  0  0  0  # atno 13536 bound_to 8977
  118.6801  244.6487  313.7153 LP  0  0  0  0  0  0  0  0  0  0  0  0  # atno 13537 bound_to 8977
  124.0654  246.0783  317.9412 LP  0  0  0  0  0  0  0  0  0  0  0  0  # atno 13538 bound_to 4885
  124.9244  247.3720  318.4464 LP  0  0  0  0  0  0  0  0  0  0  0  0  # atno 13539 bound_to 4885
  108.0439  245.1837  318.0732 LP  0  0  0  0  0  0  0  0  0  0  0  0  # atno 13540 bound_to 5565
  111.3246  243.8086  315.8057 LP  0  0  0  0  0  0  0  0  0  0  0  0  # atno 13541 bound_to 5598
  110.5217  240.1185  318.1679 LP  0  0  0  0  0  0  0  0  0  0  0  0  # atno 13542 bound_to 5639
  111.5247  238.7075  318.1146 LP  0  0  0  0  0  0  0  0  0  0  0  0  # atno 13543 bound_to 5639
  111.9582  238.6408  321.7695 LP  0  0  0  0  0  0  0  0  0  0  0  0  # atno 13544 bound_to 8319
  110.5172  238.3379  321.0636 LP  0  0  0  0  0  0  0  0  0  0  0  0  # atno 13545 bound_to 8319
  113.3346  237.8433  327.7254 LP  0  0  0  0  0  0  0  0  0  0  0  0  # atno 13548 bound_to 9180
  113.6171  238.3163  329.3675 LP  0  0  0  0  0  0  0  0  0  0  0  0  # atno 13549 bound_to 9180
  110.2105  241.1220  315.0856 LP  0  0  0  0  0  0  0  0  0  0  0  0  # atno 13552 bound_to 5636

> <Gold.Score>
     Fitness  S(hb_ext) S(vdw_ext)  S(hb_int)    S(int)      intcor
     33.38       6.53      20.36       0.00      -1.14      -0.78

> <Gold.Goldscore.Fitness>
33.3849

> <Gold.Goldscore.Internal.Vdw>
-1.4609

> <Gold.Goldscore.Internal.Torsion>
-0.4507

> <Gold.Goldscore.External.Vdw>
20.3588

> <Gold.Goldscore.Internal.HBond>
0.0000

> <Gold.Goldscore.External.HBond>
6.5278

> <Gold.Goldscore.Internal.Correction>
-0.7752

> <Gold.Goldscore.Hbonds>
donor molecule, donor type, donor heavy atom, donor atom, acceptor molecule, acceptor atom, score
      P1  H  9073  9082       L1    17  0.32
      L1  H     8    22       P1  5573  0.98

> <Gold.Goldscore.Internal.Vdw.Weighted>
-1.4609

> <Gold.Goldscore.Internal.Torsion.Weighted>
-0.4507

> <Gold.Goldscore.External.Vdw.Weighted>
27.9933

> <Gold.Goldscore.Internal.HBond.Weighted>
0.0000

> <Gold.Goldscore.External.HBond.Weighted>
6.5278

> <Gold.Goldscore.Internal.Correction.Weighted>
-0.7752

> <Gold.Rescore>
     Score     S(PLP)   S(hbond)     S(cho)   S(metal)  DE(clash)   DE(tors)     intcor
     18.30     -15.93       1.40       0.00       0.00       0.00       0.92       ----

> <Gold.PLP.Fitness>
18.3017

> <Gold.PLP.PLP>
-15.9330

> <Gold.PLP.part.hbond>
-3.0000

> <Gold.PLP.part.metal>
0.0000

> <Gold.PLP.part.buried>
18.1438

> <Gold.PLP.part.nonpolar>
-38.7266

> <Gold.PLP.part.repulsive>
6.7538

> <Gold.PLP.ligand.clash>
0.0000

> <Gold.PLP.ligand.torsion>
0.9156

> <Gold.PLP.Chemscore.Hbond>
1.4000

> <Gold.PLP.Chemscore.CHOScore>
0.0000

> <Gold.PLP.Chemscore.Metal>
0.0000

> <Gold.Chemscore.Hbonds>
donor molecule, donor type, donor heavy atom, donor atom, acceptor molecule, acceptor atom, score
      L1  H     8    22       P1  5573  0.10
      P1  H  9073  9082       L1    17  1.00

> <Gold.PLP.Chemscore.Internal.Correction>
   9.000000E+99

#       Name:                CT1002167954
#       Creating user name   hitesit
#       Creation time:       Sun Apr 16 22:52:02 2023


#       File generated by GOLD software.
#

@<TRIPOS>MOLECULE
CT1002167954|ligand_prepared|mol2|1|dock1
    29    30     1
SMALL
NO_CHARGES


@<TRIPOS>ATOM
      1 C1         110.2924 244.8286 324.4202 C.3            1 RES1               0.0000
      2 C2         111.5907 244.0869 324.0422 C.ar           1 RES1               0.0000
      3 C3         110.7174 246.0529 325.2256 C.2            1 RES1               0.0000
      4 C4         109.5926 245.1602 323.1068 C.2            1 RES1               0.0000
      5 C5         109.3204 243.9880 325.2805 C.3            1 RES1               0.0000
      6 C6         112.1499 244.2371 322.7767 C.ar           1 RES1               0.0000
      7 C7         112.2411 243.2526 324.9475 C.ar           1 RES1               0.0000
      8 N8         110.6387 247.2696 324.6146 N.am           1 RES1               0.0000
      9 O9         111.1524 245.9482 326.3658 O.2            1 RES1               0.0000
     10 N10        109.4651 246.4804 322.7627 N.am           1 RES1               0.0000
     11 O11        109.1653 244.2894 322.3588 O.2            1 RES1               0.0000
     12 C12        107.9271 244.5863 325.3931 C.3            1 RES1               0.0000
     13 C13        113.3184 243.5795 322.4296 C.ar           1 RES1               0.0000
     14 C14        113.4094 242.5957 324.5983 C.ar           1 RES1               0.0000
     15 C15        109.9836 247.5489 323.4422 C.2            1 RES1               0.0000
     16 C16        113.9491 242.7588 323.3402 C.ar           1 RES1               0.0000
     17 O17        109.8740 248.7039 323.0407 O.2            1 RES1               0.0000
     18 H18        109.2397 242.9849 324.8438 H              1 RES1               0.0000
     19 H19        109.7416 243.8822 326.2879 H              1 RES1               0.0000
     20 H20        111.6663 244.8769 322.0460 H              1 RES1               0.0000
     21 H21        111.8341 243.1084 325.9426 H              1 RES1               0.0000
     22 H22        111.1106 248.0434 325.0717 H              1 RES1               0.0000
     23 H23        108.9343 246.6858 321.9222 H              1 RES1               0.0000
     24 H24        107.2856 243.9574 326.0069 H              1 RES1               0.0000
     25 H25        107.9671 245.5745 325.8468 H              1 RES1               0.0000
     26 H26        107.4681 244.6825 324.4113 H              1 RES1               0.0000
     27 H27        113.7383 243.7101 321.4378 H              1 RES1               0.0000
     28 H28        113.9021 241.9502 325.3180 H              1 RES1               0.0000
     29 H29        114.8647 242.2440 323.0683 H              1 RES1               0.0000
@<TRIPOS>BOND
    1    1    2 1     
    2    1    3 1     
    3    1    4 1     
    4    1    5 1     
    5    2    6 ar    
    6    2    7 ar    
    7    3    8 1     
    8    3    9 2     
    9    4   10 1     
   10    4   11 2     
   11    5   12 1     
   12    5   18 1     
   13    5   19 1     
   14    6   13 ar    
   15    6   20 1     
   16    7   14 ar    
   17    7   21 1     
   18    8   15 1     
   19    8   22 1     
   20   10   15 1     
   21   10   23 1     
   22   12   24 1     
   23   12   25 1     
   24   12   26 1     
   25   13   16 ar    
   26   13   27 1     
   27   14   16 ar    
   28   14   28 1     
   29   15   17 2     
   30   16   29 1     
@<TRIPOS>SUBSTRUCTURE
      1 RES1           1
@<TRIPOS>SET
DONOR_HYDROGENS      STATIC     ATOMS    <user>   **** ""
2 22 23
ATOM$RED        STATIC     ATOMS    COLORGROUP SYSTEM
2 22 23
@<TRIPOS>COMMENT
> <Gold.Version>
2022.3.0

> <Gold.Id.Protein>
unknown|4uch_clean|pdb

> <Gold.Protein.RotatedTorsions>
[ 1282 1268 1269 1270 ] final  -90.10 input   42.93 | X-H torsion
[ 12864 12852 12853 12854 ] final  -45.51 input  102.46 | X-H torsion
[ 12872 12863 12862 12860 ] final   45.10 input   59.97 | X-H torsion
[ 12900 12891 12892 12893 ] final  -84.58 input   33.49 | X-H torsion
[ 12960 12952 12953 12954 ] final -121.06 input  127.22 | X-H torsion
[ 13446 13426 13425 13421 ] final -125.66 input   59.98 | X-H torsion
[ 1244 1232 1233 1234 ] final   96.08 input  119.89 | X-H torsion
[ 5550 5545 5544 5541 ] final  101.71 input   60.01 | X-H torsion
[ 3548 3542 3543 3544 ] final -144.38 input   78.91 | X-H torsion
[ 3570 3563 3564 3565 ] final  142.14 input  104.01 | X-H torsion
[ 3596 3592 3593 3594 ] final -118.31 input   81.17 | X-H torsion
[ 8428 8423 8424 8425 ] final    8.74 input   41.93 | X-H torsion
[ 8452 8445 8446 8447 ] final  -37.74 input   98.48 | X-H torsion
[ 8978 8972 8973 8974 ] final  110.47 input   32.89 | X-H torsion
[ 8996 8992 8993 8994 ] final  -98.39 input   45.98 | X-H torsion
[ 9030 9016 9017 9018 ] final  171.62 input   38.77 | X-H torsion
[ 9074 9062 9063 9064 ] final -159.59 input   99.93 | X-H torsion
[ 9108 9100 9101 9102 ] final -162.97 input   97.82 | X-H torsion
[ 8482 8476 8477 8478 ] final -164.47 input   55.16 | X-H torsion
[ 9082 9073 9072 9070 ] final   47.47 input   60.02 | X-H torsion
[ 8948 8937 8938 8939 ] final  -72.84 input   49.52 | X-H torsion
[ 8982 8977 8976 8973 ] final   25.63 input   60.00 | X-H torsion
[ 4890 4885 4884 4881 ] final  -44.72 input   59.99 | X-H torsion
[ 5574 5565 5566 5567 ] final -176.55 input   50.85 | X-H torsion
[ 5606 5598 5599 5600 ] final   12.16 input  117.92 | X-H torsion
[ 8328 8319 8318 8316 ] final   94.80 input   59.98 | X-H torsion
[ 5644 5636 5637 5638 ] final    7.24 input   69.86 | X-H torsion
[ 13451 13428 13427 13425 ] final   78.54 input   60.01 | X-H torsion
[ 8508 8500 8501 8502 ] final -138.28 input   75.08 | X-H torsion
[ 4906 4901 4902 4903 ] final -157.06 input   29.84 | X-H torsion
[ 13460 1235 1234 1233 ] final -154.51 input    0.00 | X-H torsion
[ 13464 8503 8502 8501 ] final  111.08 input    0.00 | X-H torsion
[ 13466 12822 12821 12820 ] final  115.03 input   -0.00 | X-H torsion
[ 13469 12855 12854 12853 ] final   28.41 input   -0.00 | X-H torsion
[ 13474 12894 12893 12892 ] final  124.27 input    0.00 | X-H torsion
[ 13493 5543 5542 5541 ] final -131.64 input    0.00 | X-H torsion
[ 13497 3502 3501 3500 ] final -105.66 input   -0.00 | X-H torsion
[ 13500 3545 3544 3543 ] final  -57.79 input    0.00 | X-H torsion
[ 13505 8400 8399 8398 ] final   89.02 input   -0.00 | X-H torsion
[ 13509 8448 8447 8446 ] final  129.12 input    0.00 | X-H torsion
[ 13511 8940 8939 8938 ] final -178.06 input    0.00 | X-H torsion
[ 13514 8975 8974 8973 ] final   -0.88 input   -0.00 | X-H torsion
[ 13517 8995 8994 8993 ] final   32.38 input    0.00 | X-H torsion
[ 13520 9019 9018 9017 ] final  -52.29 input   -0.00 | X-H torsion
[ 13528 8426 8425 8424 ] final  132.07 input    0.00 | X-H torsion
[ 13530 8363 8362 8361 ] final   87.05 input    0.00 | X-H torsion
[ 13542 5639 5638 5637 ] final  178.83 input    0.00 | X-H torsion
[ 13548 9180 9179 9178 ] final  -20.57 input   -0.00 | X-H torsion

> <Gold.Protein.ActiveResidues>
 TRP311  MET341  HIS342  TRP414  ALA417  ARG419  CYS420  VAL421  GLY422  ARG423 
 SER462  ALA463  SER482  GLN483  LEU484  ILE485  ARG486  TRP566  TYR567  LEU569 
 PRO570  ALA571  VAL572  SER573  ASN574  MET575  PHE589  SER590  GLY591  TRP592 
 TYR593  MET594  GLU597  ILE598  ARG601  ASP602  ARG608  TRP683  PHE696  GLU710 
 TYR711  GLN712  PRO713  ASP714  HEM750  H4B760 

> <Gold.Protein.RotatedAtoms>
  105.9989  253.3097  335.1212 H   0  0  0  0  0  0  0  0  0  0  0  0  # atno 1244 bound_to 1232
  107.1887  254.7633  332.9423 H   0  0  0  0  0  0  0  0  0  0  0  0  # atno 1282 bound_to 1268
  118.3369  251.4438  328.4295 H   0  0  0  0  0  0  0  0  0  0  0  0  # atno 3548 bound_to 3542
  120.7442  248.6220  328.9157 H   0  0  0  0  0  0  0  0  0  0  0  0  # atno 3570 bound_to 3563
  123.8011  248.0028  327.7472 H   0  0  0  0  0  0  0  0  0  0  0  0  # atno 3596 bound_to 3592
  124.1002  246.0399  317.9012 H   0  0  0  0  0  0  0  0  0  0  0  0  # atno 4890 bound_to 4885
  123.0594  247.3115  314.1620 H   0  0  0  0  0  0  0  0  0  0  0  0  # atno 4906 bound_to 4901
  107.0502  244.0759  321.1229 H   0  0  0  0  0  0  0  0  0  0  0  0  # atno 5550 bound_to 5545
  108.2603  244.7191  319.0533 H   0  0  0  0  0  0  0  0  0  0  0  0  # atno 5574 bound_to 5565
  110.6044  242.5970  316.3150 H   0  0  0  0  0  0  0  0  0  0  0  0  # atno 5606 bound_to 5598
  110.8253  241.1438  315.8749 H   0  0  0  0  0  0  0  0  0  0  0  0  # atno 5644 bound_to 5636
  111.8866  238.5619  321.7977 H   0  0  0  0  0  0  0  0  0  0  0  0  # atno 8328 bound_to 8319
  114.3193  242.8522  318.7417 H   0  0  0  0  0  0  0  0  0  0  0  0  # atno 8428 bound_to 8423
  113.8459  245.8153  317.4081 H   0  0  0  0  0  0  0  0  0  0  0  0  # atno 8452 bound_to 8445
  111.8488  247.3126  317.4064 H   0  0  0  0  0  0  0  0  0  0  0  0  # atno 8482 bound_to 8476
  108.8940  249.0055  317.0508 H   0  0  0  0  0  0  0  0  0  0  0  0  # atno 8508 bound_to 8500
  114.8560  248.5888  314.6411 H   0  0  0  0  0  0  0  0  0  0  0  0  # atno 8948 bound_to 8937
  118.0116  247.3196  315.2331 H   0  0  0  0  0  0  0  0  0  0  0  0  # atno 8978 bound_to 8972
  119.9664  245.3440  314.8882 H   0  0  0  0  0  0  0  0  0  0  0  0  # atno 8982 bound_to 8977
  119.9985  245.1166  317.2136 H   0  0  0  0  0  0  0  0  0  0  0  0  # atno 8996 bound_to 8992
  122.4655  243.1925  319.1982 H   0  0  0  0  0  0  0  0  0  0  0  0  # atno 9030 bound_to 9016
  120.7645  240.3579  321.3961 H   0  0  0  0  0  0  0  0  0  0  0  0  # atno 9074 bound_to 9062
  114.1666  239.9517  322.3019 H   0  0  0  0  0  0  0  0  0  0  0  0  # atno 9082 bound_to 9073
  121.7969  240.9285  325.1032 H   0  0  0  0  0  0  0  0  0  0  0  0  # atno 9108 bound_to 9100
  109.3378  257.1059  323.0039 H   0  0  0  0  0  0  0  0  0  0  0  0  # atno 12864 bound_to 12852
  111.2840  251.4715  327.3896 H   0  0  0  0  0  0  0  0  0  0  0  0  # atno 12872 bound_to 12863
  105.9395  255.7846  323.1266 H   0  0  0  0  0  0  0  0  0  0  0  0  # atno 12900 bound_to 12891
  101.6980  252.8300  320.9549 H   0  0  0  0  0  0  0  0  0  0  0  0  # atno 12960 bound_to 12952
  107.8723  246.2198  336.0114 H   0  0  0  0  0  0  0  0  0  0  0  0  # atno 13446 bound_to 13426
  108.7617  250.5697  336.1224 H   0  0  0  0  0  0  0  0  0  0  0  0  # atno 13451 bound_to 13428
  108.5235  255.0580  331.2245 LP  0  0  0  0  0  0  0  0  0  0  0  0  # atno 13460 bound_to 1235
  108.8076  253.3562  331.3755 LP  0  0  0  0  0  0  0  0  0  0  0  0  # atno 13461 bound_to 1235
  105.5471  254.3138  332.5272 LP  0  0  0  0  0  0  0  0  0  0  0  0  # atno 13462 bound_to 1268
  107.0702  252.7080  320.1643 LP  0  0  0  0  0  0  0  0  0  0  0  0  # atno 13464 bound_to 8503
  106.4729  252.8685  318.5464 LP  0  0  0  0  0  0  0  0  0  0  0  0  # atno 13465 bound_to 8503
  110.0381  255.1593  321.7181 LP  0  0  0  0  0  0  0  0  0  0  0  0  # atno 13466 bound_to 12822
  109.6131  256.6013  320.8578 LP  0  0  0  0  0  0  0  0  0  0  0  0  # atno 13467 bound_to 12822
  109.3874  256.5781  324.6665 LP  0  0  0  0  0  0  0  0  0  0  0  0  # atno 13468 bound_to 12852
  107.5248  258.1636  322.8462 LP  0  0  0  0  0  0  0  0  0  0  0  0  # atno 13469 bound_to 12855
  105.8105  258.0915  322.6100 LP  0  0  0  0  0  0  0  0  0  0  0  0  # atno 13470 bound_to 12855
  110.0840  251.2605  328.4682 LP  0  0  0  0  0  0  0  0  0  0  0  0  # atno 13471 bound_to 12863
  111.1191  252.5132  328.6288 LP  0  0  0  0  0  0  0  0  0  0  0  0  # atno 13472 bound_to 12863
  106.5211  255.0953  321.6300 LP  0  0  0  0  0  0  0  0  0  0  0  0  # atno 13473 bound_to 12891
  103.0909  253.8408  322.7380 LP  0  0  0  0  0  0  0  0  0  0  0  0  # atno 13474 bound_to 12894
  104.2717  253.5259  321.5106 LP  0  0  0  0  0  0  0  0  0  0  0  0  # atno 13475 bound_to 12894
  100.0026  253.0256  321.3342 LP  0  0  0  0  0  0  0  0  0  0  0  0  # atno 13476 bound_to 12952
  108.6449  246.5733  337.3990 LP  0  0  0  0  0  0  0  0  0  0  0  0  # atno 13490 bound_to 13426
  109.4554  245.8765  336.1644 LP  0  0  0  0  0  0  0  0  0  0  0  0  # atno 13491 bound_to 13426
  107.6548  253.7805  335.4378 LP  0  0  0  0  0  0  0  0  0  0  0  0  # atno 13492 bound_to 1232
  109.8264  246.3286  318.2491 LP  0  0  0  0  0  0  0  0  0  0  0  0  # atno 13493 bound_to 5543
  109.0871  246.6960  319.7718 LP  0  0  0  0  0  0  0  0  0  0  0  0  # atno 13494 bound_to 5543
  106.3092  243.7141  319.7196 LP  0  0  0  0  0  0  0  0  0  0  0  0  # atno 13495 bound_to 5545
  105.4256  243.9974  321.0634 LP  0  0  0  0  0  0  0  0  0  0  0  0  # atno 13496 bound_to 5545
  118.8252  249.4891  330.0482 LP  0  0  0  0  0  0  0  0  0  0  0  0  # atno 13497 bound_to 3502
  117.3408  249.5749  329.1597 LP  0  0  0  0  0  0  0  0  0  0  0  0  # atno 13498 bound_to 3502
  119.8617  252.2664  328.6419 LP  0  0  0  0  0  0  0  0  0  0  0  0  # atno 13499 bound_to 3542
  122.5293  251.4927  327.1632 LP  0  0  0  0  0  0  0  0  0  0  0  0  # atno 13500 bound_to 3545
  122.6981  251.3580  328.8818 LP  0  0  0  0  0  0  0  0  0  0  0  0  # atno 13501 bound_to 3545
  121.5916  249.5797  327.7184 LP  0  0  0  0  0  0  0  0  0  0  0  0  # atno 13502 bound_to 3563
  122.8461  248.8327  326.5423 LP  0  0  0  0  0  0  0  0  0  0  0  0  # atno 13503 bound_to 3592
  117.8281  243.4557  317.6369 LP  0  0  0  0  0  0  0  0  0  0  0  0  # atno 13505 bound_to 8400
  117.4376  244.1938  319.1543 LP  0  0  0  0  0  0  0  0  0  0  0  0  # atno 13506 bound_to 8400
  115.8943  242.5811  318.0418 LP  0  0  0  0  0  0  0  0  0  0  0  0  # atno 13507 bound_to 8423
  114.6775  246.0284  318.9307 LP  0  0  0  0  0  0  0  0  0  0  0  0  # atno 13508 bound_to 8445
  112.9951  248.5559  316.0637 LP  0  0  0  0  0  0  0  0  0  0  0  0  # atno 13509 bound_to 8448
  113.6276  249.2164  317.5346 LP  0  0  0  0  0  0  0  0  0  0  0  0  # atno 13510 bound_to 8448
  116.2226  246.2630  317.4547 LP  0  0  0  0  0  0  0  0  0  0  0  0  # atno 13511 bound_to 8940
  115.1272  247.5308  317.0157 LP  0  0  0  0  0  0  0  0  0  0  0  0  # atno 13512 bound_to 8940
  118.0880  247.9492  316.8608 LP  0  0  0  0  0  0  0  0  0  0  0  0  # atno 13513 bound_to 8972
  120.5382  247.1309  315.9671 LP  0  0  0  0  0  0  0  0  0  0  0  0  # atno 13514 bound_to 8975
  121.7044  246.4659  317.0615 LP  0  0  0  0  0  0  0  0  0  0  0  0  # atno 13515 bound_to 8975
  119.3263  244.9255  318.8158 LP  0  0  0  0  0  0  0  0  0  0  0  0  # atno 13516 bound_to 8992
  121.6551  242.8067  317.0000 LP  0  0  0  0  0  0  0  0  0  0  0  0  # atno 13517 bound_to 8995
  121.1595  241.5719  318.1089 LP  0  0  0  0  0  0  0  0  0  0  0  0  # atno 13518 bound_to 8995
  121.6565  243.5121  320.7124 LP  0  0  0  0  0  0  0  0  0  0  0  0  # atno 13519 bound_to 9016
  122.3128  242.8350  322.7283 LP  0  0  0  0  0  0  0  0  0  0  0  0  # atno 13520 bound_to 9019
  120.6854  242.3740  323.1011 LP  0  0  0  0  0  0  0  0  0  0  0  0  # atno 13521 bound_to 9019
  122.3102  239.8718  322.0499 LP  0  0  0  0  0  0  0  0  0  0  0  0  # atno 13522 bound_to 9062
  120.3355  240.0167  325.3961 LP  0  0  0  0  0  0  0  0  0  0  0  0  # atno 13523 bound_to 9100
  111.8361  244.6413  318.0719 LP  0  0  0  0  0  0  0  0  0  0  0  0  # atno 13528 bound_to 8426
  112.3670  244.3968  316.4415 LP  0  0  0  0  0  0  0  0  0  0  0  0  # atno 13529 bound_to 8426
  114.9456  239.0606  317.5971 LP  0  0  0  0  0  0  0  0  0  0  0  0  # atno 13530 bound_to 8363
  115.1597  240.4130  316.5363 LP  0  0  0  0  0  0  0  0  0  0  0  0  # atno 13531 bound_to 8363
  110.4580  247.7858  318.3502 LP  0  0  0  0  0  0  0  0  0  0  0  0  # atno 13532 bound_to 8476
  113.8859  238.5106  323.0036 LP  0  0  0  0  0  0  0  0  0  0  0  0  # atno 13533 bound_to 9073
  114.2017  238.5952  321.4037 LP  0  0  0  0  0  0  0  0  0  0  0  0  # atno 13534 bound_to 9073
  114.7047  249.7812  315.9117 LP  0  0  0  0  0  0  0  0  0  0  0  0  # atno 13535 bound_to 8937
  118.7243  245.4644  313.8438 LP  0  0  0  0  0  0  0  0  0  0  0  0  # atno 13536 bound_to 8977
  119.3476  244.0002  314.2102 LP  0  0  0  0  0  0  0  0  0  0  0  0  # atno 13537 bound_to 8977
  124.8620  247.3631  318.4635 LP  0  0  0  0  0  0  0  0  0  0  0  0  # atno 13538 bound_to 4885
  125.6559  246.3054  317.5055 LP  0  0  0  0  0  0  0  0  0  0  0  0  # atno 13539 bound_to 4885
  107.5077  244.0411  317.6292 LP  0  0  0  0  0  0  0  0  0  0  0  0  # atno 13540 bound_to 5565
  110.5489  244.2142  315.6564 LP  0  0  0  0  0  0  0  0  0  0  0  0  # atno 13541 bound_to 5598
  110.3667  239.1364  318.6336 LP  0  0  0  0  0  0  0  0  0  0  0  0  # atno 13542 bound_to 5639
  111.6797  239.6896  317.6489 LP  0  0  0  0  0  0  0  0  0  0  0  0  # atno 13543 bound_to 5639
  110.4900  238.4013  320.9775 LP  0  0  0  0  0  0  0  0  0  0  0  0  # atno 13544 bound_to 8319
  111.5699  239.5455  320.5402 LP  0  0  0  0  0  0  0  0  0  0  0  0  # atno 13545 bound_to 8319
  113.5859  238.7190  329.1203 LP  0  0  0  0  0  0  0  0  0  0  0  0  # atno 13548 bound_to 9180
  113.3657  237.4406  327.9726 LP  0  0  0  0  0  0  0  0  0  0  0  0  # atno 13549 bound_to 9180
  111.2882  240.8418  314.2151 LP  0  0  0  0  0  0  0  0  0  0  0  0  # atno 13552 bound_to 5636

> <Gold.Score>
     Fitness  S(hb_ext) S(vdw_ext)  S(hb_int)    S(int)      intcor
     32.95       5.67      20.64       0.00      -1.10      -0.83

> <Gold.Goldscore.Fitness>
32.9527

> <Gold.Goldscore.Internal.Vdw>
-1.3022

> <Gold.Goldscore.Internal.Torsion>
-0.6230

> <Gold.Goldscore.External.Vdw>
20.6379

> <Gold.Goldscore.Internal.HBond>
0.0000

> <Gold.Goldscore.External.HBond>
5.6723

> <Gold.Goldscore.Internal.Correction>
-0.8284

> <Gold.Goldscore.Hbonds>
donor molecule, donor type, donor heavy atom, donor atom, acceptor molecule, acceptor atom, score
      P1  H  5572  5581       L1    11  0.24
      P1  H  5545  5550       L1    11  0.48
      L1  H     8    22       P1 13311  0.70

> <Gold.Goldscore.Internal.Vdw.Weighted>
-1.3022

> <Gold.Goldscore.Internal.Torsion.Weighted>
-0.6230

> <Gold.Goldscore.External.Vdw.Weighted>
28.3772

> <Gold.Goldscore.Internal.HBond.Weighted>
0.0000

> <Gold.Goldscore.External.HBond.Weighted>
5.6723

> <Gold.Goldscore.Internal.Correction.Weighted>
-0.8284

> <Gold.Rescore>
     Score     S(PLP)   S(hbond)     S(cho)   S(metal)  DE(clash)   DE(tors)     intcor
     23.45     -20.12       1.93       0.00       0.00       0.00       1.23       ----

> <Gold.PLP.Fitness>
23.4504

> <Gold.PLP.PLP>
-20.1166

> <Gold.PLP.part.hbond>
-2.3088

> <Gold.PLP.part.metal>
0.0000

> <Gold.PLP.part.buried>
-6.3586

> <Gold.PLP.part.nonpolar>
-15.0861

> <Gold.PLP.part.repulsive>
2.2304

> <Gold.PLP.ligand.clash>
0.0000

> <Gold.PLP.ligand.torsion>
1.2300

> <Gold.PLP.Chemscore.Hbond>
1.9313

> <Gold.PLP.Chemscore.CHOScore>
0.0000

> <Gold.PLP.Chemscore.Metal>
0.0000

> <Gold.Chemscore.Hbonds>
donor molecule, donor type, donor heavy atom, donor atom, acceptor molecule, acceptor atom, score
      L1  H     8    22       P1 13311  1.00
      P1  H  5572  5581       L1    11  0.41
      P1  H  5545  5550       L1    11  0.10

> <Gold.PLP.Chemscore.Internal.Correction>
   9.000000E+99

#       Name:                CT1002167954
#       Creating user name   hitesit
#       Creation time:       Sun Apr 16 22:52:09 2023


#       File generated by GOLD software.
#

@<TRIPOS>MOLECULE
CT1002167954|ligand_prepared|mol2|1|dock9
    29    30     1
SMALL
NO_CHARGES


@<TRIPOS>ATOM
      1 C1         111.1904 245.7581 324.4765 C.3            1 RES1               0.0000
      2 C2         112.5305 245.1491 324.0160 C.ar           1 RES1               0.0000
      3 C3         110.5612 246.3935 323.2401 C.2            1 RES1               0.0000
      4 C4         110.3799 244.6093 325.0663 C.2            1 RES1               0.0000
      5 C5         111.3399 246.8458 325.5656 C.3            1 RES1               0.0000
      6 C6         112.5546 244.0906 323.1128 C.ar           1 RES1               0.0000
      7 C7         113.7486 245.6358 324.4828 C.ar           1 RES1               0.0000
      8 N8         109.4984 245.7544 322.6727 N.am           1 RES1               0.0000
      9 O9         111.0155 247.4186 322.7471 O.2            1 RES1               0.0000
     10 N10        109.2308 244.2359 324.4198 N.am           1 RES1               0.0000
     11 O11        110.7348 244.0130 326.0757 O.2            1 RES1               0.0000
     12 C12        110.0142 247.3817 326.0830 C.3            1 RES1               0.0000
     13 C13        113.7531 243.5406 322.6892 C.ar           1 RES1               0.0000
     14 C14        114.9460 245.0842 324.0581 C.ar           1 RES1               0.0000
     15 C15        108.7695 244.7362 323.2327 C.2            1 RES1               0.0000
     16 C16        114.9495 244.0372 323.1611 C.ar           1 RES1               0.0000
     17 O17        107.7561 244.3111 322.6855 O.2            1 RES1               0.0000
     18 H18        111.9043 246.4270 326.4078 H              1 RES1               0.0000
     19 H19        111.9214 247.6800 325.1540 H              1 RES1               0.0000
     20 H20        111.6230 243.6850 322.7324 H              1 RES1               0.0000
     21 H21        113.7700 246.4582 325.1898 H              1 RES1               0.0000
     22 H22        109.2199 246.0619 321.7464 H              1 RES1               0.0000
     23 H23        108.6670 243.5187 324.8648 H              1 RES1               0.0000
     24 H24        110.1762 248.1416 326.8446 H              1 RES1               0.0000
     25 H25        109.4373 247.8284 325.2759 H              1 RES1               0.0000
     26 H26        109.4203 246.5828 326.5222 H              1 RES1               0.0000
     27 H27        113.7504 242.7159 321.9842 H              1 RES1               0.0000
     28 H28        115.8852 245.4777 324.4326 H              1 RES1               0.0000
     29 H29        115.8882 243.6064 322.8288 H              1 RES1               0.0000
@<TRIPOS>BOND
    1    1    2 1     
    2    1    3 1     
    3    1    4 1     
    4    1    5 1     
    5    2    6 ar    
    6    2    7 ar    
    7    3    8 1     
    8    3    9 2     
    9    4   10 1     
   10    4   11 2     
   11    5   12 1     
   12    5   18 1     
   13    5   19 1     
   14    6   13 ar    
   15    6   20 1     
   16    7   14 ar    
   17    7   21 1     
   18    8   15 1     
   19    8   22 1     
   20   10   15 1     
   21   10   23 1     
   22   12   24 1     
   23   12   25 1     
   24   12   26 1     
   25   13   16 ar    
   26   13   27 1     
   27   14   16 ar    
   28   14   28 1     
   29   15   17 2     
   30   16   29 1     
@<TRIPOS>SUBSTRUCTURE
      1 RES1           1
@<TRIPOS>SET
DONOR_HYDROGENS      STATIC     ATOMS    <user>   **** ""
2 22 23
ATOM$RED        STATIC     ATOMS    COLORGROUP SYSTEM
2 22 23
@<TRIPOS>COMMENT
> <Gold.Version>
2022.3.0

> <Gold.Id.Protein>
unknown|4uch_clean|pdb

> <Gold.Protein.RotatedTorsions>
[ 1282 1268 1269 1270 ] final -145.42 input   42.93 | X-H torsion
[ 12864 12852 12853 12854 ] final  -98.56 input  102.46 | X-H torsion
[ 12872 12863 12862 12860 ] final  157.17 input   59.97 | X-H torsion
[ 12900 12891 12892 12893 ] final -168.86 input   33.49 | X-H torsion
[ 12960 12952 12953 12954 ] final  -44.18 input  127.22 | X-H torsion
[ 13446 13426 13425 13421 ] final   57.23 input   59.98 | X-H torsion
[ 1244 1232 1233 1234 ] final -102.70 input  119.89 | X-H torsion
[ 5550 5545 5544 5541 ] final  144.95 input   60.01 | X-H torsion
[ 3548 3542 3543 3544 ] final   71.53 input   78.91 | X-H torsion
[ 3570 3563 3564 3565 ] final   93.87 input  104.01 | X-H torsion
[ 3596 3592 3593 3594 ] final  -94.58 input   81.17 | X-H torsion
[ 8428 8423 8424 8425 ] final  -63.77 input   41.93 | X-H torsion
[ 8452 8445 8446 8447 ] final  172.87 input   98.48 | X-H torsion
[ 8978 8972 8973 8974 ] final  101.64 input   32.89 | X-H torsion
[ 8996 8992 8993 8994 ] final -148.39 input   45.98 | X-H torsion
[ 9030 9016 9017 9018 ] final   18.71 input   38.77 | X-H torsion
[ 9074 9062 9063 9064 ] final    2.70 input   99.93 | X-H torsion
[ 9108 9100 9101 9102 ] final   39.81 input   97.82 | X-H torsion
[ 8482 8476 8477 8478 ] final   80.22 input   55.16 | X-H torsion
[ 9082 9073 9072 9070 ] final  142.45 input   60.02 | X-H torsion
[ 8948 8937 8938 8939 ] final  153.35 input   49.52 | X-H torsion
[ 8982 8977 8976 8973 ] final  121.39 input   60.00 | X-H torsion
[ 4890 4885 4884 4881 ] final   34.23 input   59.99 | X-H torsion
[ 5574 5565 5566 5567 ] final  -71.79 input   50.85 | X-H torsion
[ 5606 5598 5599 5600 ] final   20.43 input  117.92 | X-H torsion
[ 8328 8319 8318 8316 ] final   31.46 input   59.98 | X-H torsion
[ 5644 5636 5637 5638 ] final    7.93 input   69.86 | X-H torsion
[ 13451 13428 13427 13425 ] final   31.50 input   60.01 | X-H torsion
[ 8508 8500 8501 8502 ] final   34.00 input   75.08 | X-H torsion
[ 4906 4901 4902 4903 ] final   -7.53 input   29.84 | X-H torsion
[ 13460 1235 1234 1233 ] final -147.68 input    0.00 | X-H torsion
[ 13464 8503 8502 8501 ] final  -56.24 input    0.00 | X-H torsion
[ 13466 12822 12821 12820 ] final   23.87 input   -0.00 | X-H torsion
[ 13469 12855 12854 12853 ] final  -44.83 input   -0.00 | X-H torsion
[ 13474 12894 12893 12892 ] final  123.86 input    0.00 | X-H torsion
[ 13493 5543 5542 5541 ] final -100.10 input    0.00 | X-H torsion
[ 13497 3502 3501 3500 ] final   77.44 input   -0.00 | X-H torsion
[ 13500 3545 3544 3543 ] final   61.90 input    0.00 | X-H torsion
[ 13505 8400 8399 8398 ] final -154.75 input   -0.00 | X-H torsion
[ 13509 8448 8447 8446 ] final  -17.12 input    0.00 | X-H torsion
[ 13511 8940 8939 8938 ] final  -18.25 input    0.00 | X-H torsion
[ 13514 8975 8974 8973 ] final   23.69 input   -0.00 | X-H torsion
[ 13517 8995 8994 8993 ] final   51.67 input    0.00 | X-H torsion
[ 13520 9019 9018 9017 ] final  -66.50 input   -0.00 | X-H torsion
[ 13528 8426 8425 8424 ] final  -79.24 input    0.00 | X-H torsion
[ 13530 8363 8362 8361 ] final -106.26 input    0.00 | X-H torsion
[ 13542 5639 5638 5637 ] final  -14.87 input    0.00 | X-H torsion
[ 13548 9180 9179 9178 ] final -166.90 input   -0.00 | X-H torsion

> <Gold.Protein.ActiveResidues>
 TRP311  MET341  HIS342  TRP414  ALA417  ARG419  CYS420  VAL421  GLY422  ARG423 
 SER462  ALA463  SER482  GLN483  LEU484  ILE485  ARG486  TRP566  TYR567  LEU569 
 PRO570  ALA571  VAL572  SER573  ASN574  MET575  PHE589  SER590  GLY591  TRP592 
 TYR593  MET594  GLU597  ILE598  ARG601  ASP602  ARG608  TRP683  PHE696  GLU710 
 TYR711  GLN712  PRO713  ASP714  HEM750  H4B760 

> <Gold.Protein.RotatedAtoms>
  107.6976  253.5072  335.5168 H   0  0  0  0  0  0  0  0  0  0  0  0  # atno 1244 bound_to 1232
  107.0788  254.2757  332.2806 H   0  0  0  0  0  0  0  0  0  0  0  0  # atno 1282 bound_to 1268
  119.6412  252.4660  328.1932 H   0  0  0  0  0  0  0  0  0  0  0  0  # atno 3548 bound_to 3542
  120.9071  248.2590  328.3043 H   0  0  0  0  0  0  0  0  0  0  0  0  # atno 3570 bound_to 3563
  123.9481  248.3348  327.7512 H   0  0  0  0  0  0  0  0  0  0  0  0  # atno 3596 bound_to 3592
  125.1693  245.8726  317.4061 H   0  0  0  0  0  0  0  0  0  0  0  0  # atno 4890 bound_to 4885
  121.6751  247.6751  315.0853 H   0  0  0  0  0  0  0  0  0  0  0  0  # atno 4906 bound_to 4901
  106.4894  244.1478  321.5187 H   0  0  0  0  0  0  0  0  0  0  0  0  # atno 5550 bound_to 5545
  107.8768  245.0354  317.7448 H   0  0  0  0  0  0  0  0  0  0  0  0  # atno 5574 bound_to 5565
  110.7311  242.6083  316.3076 H   0  0  0  0  0  0  0  0  0  0  0  0  # atno 5606 bound_to 5598
  110.8354  241.1429  315.8779 H   0  0  0  0  0  0  0  0  0  0  0  0  # atno 5644 bound_to 5636
  111.0193  238.1257  321.6403 H   0  0  0  0  0  0  0  0  0  0  0  0  # atno 8328 bound_to 8319
  115.2222  243.2219  319.0988 H   0  0  0  0  0  0  0  0  0  0  0  0  # atno 8428 bound_to 8423
  114.4246  245.6491  319.0047 H   0  0  0  0  0  0  0  0  0  0  0  0  # atno 8452 bound_to 8445
  110.4849  246.9710  317.8939 H   0  0  0  0  0  0  0  0  0  0  0  0  # atno 8482 bound_to 8476
  109.7639  249.6701  318.4244 H   0  0  0  0  0  0  0  0  0  0  0  0  # atno 8508 bound_to 8500
  114.8645  250.0758  315.3125 H   0  0  0  0  0  0  0  0  0  0  0  0  # atno 8948 bound_to 8937
  118.1443  247.3482  315.2271 H   0  0  0  0  0  0  0  0  0  0  0  0  # atno 8978 bound_to 8972
  119.6402  244.0610  314.4681 H   0  0  0  0  0  0  0  0  0  0  0  0  # atno 8982 bound_to 8977
  119.9351  245.7492  317.6072 H   0  0  0  0  0  0  0  0  0  0  0  0  # atno 8996 bound_to 8992
  122.0493  243.5474  320.8218 H   0  0  0  0  0  0  0  0  0  0  0  0  # atno 9030 bound_to 9016
  122.3343  240.1298  322.1248 H   0  0  0  0  0  0  0  0  0  0  0  0  # atno 9074 bound_to 9062
  114.2596  238.9888  321.3175 H   0  0  0  0  0  0  0  0  0  0  0  0  # atno 9082 bound_to 9073
  120.2291  240.3221  325.5177 H   0  0  0  0  0  0  0  0  0  0  0  0  # atno 9108 bound_to 9100
  109.7831  256.4785  323.1593 H   0  0  0  0  0  0  0  0  0  0  0  0  # atno 12864 bound_to 12852
  111.2082  252.5183  328.5341 H   0  0  0  0  0  0  0  0  0  0  0  0  # atno 12872 bound_to 12863
  106.6737  256.1985  322.2924 H   0  0  0  0  0  0  0  0  0  0  0  0  # atno 12900 bound_to 12891
  100.9518  253.4607  320.4482 H   0  0  0  0  0  0  0  0  0  0  0  0  # atno 12960 bound_to 12952
  109.4150  246.2489  337.0699 H   0  0  0  0  0  0  0  0  0  0  0  0  # atno 13446 bound_to 13426
  109.2697  250.2441  335.6822 H   0  0  0  0  0  0  0  0  0  0  0  0  # atno 13451 bound_to 13428
  108.5899  255.0698  331.3026 LP  0  0  0  0  0  0  0  0  0  0  0  0  # atno 13460 bound_to 1235
  108.7412  253.3444  331.2974 LP  0  0  0  0  0  0  0  0  0  0  0  0  # atno 13461 bound_to 1235
  105.6528  254.7826  333.1633 LP  0  0  0  0  0  0  0  0  0  0  0  0  # atno 13462 bound_to 1268
  106.3678  252.7156  318.5926 LP  0  0  0  0  0  0  0  0  0  0  0  0  # atno 13464 bound_to 8503
  107.1752  252.8609  320.1181 LP  0  0  0  0  0  0  0  0  0  0  0  0  # atno 13465 bound_to 8503
  110.6607  256.0751  321.1667 LP  0  0  0  0  0  0  0  0  0  0  0  0  # atno 13466 bound_to 12822
  108.9905  255.6855  321.4092 LP  0  0  0  0  0  0  0  0  0  0  0  0  # atno 13467 bound_to 12822
  108.9485  257.1964  324.5133 LP  0  0  0  0  0  0  0  0  0  0  0  0  # atno 13468 bound_to 12852
  106.8015  258.1414  323.5836 LP  0  0  0  0  0  0  0  0  0  0  0  0  # atno 13469 bound_to 12855
  106.5338  258.1138  321.8726 LP  0  0  0  0  0  0  0  0  0  0  0  0  # atno 13470 bound_to 12855
  111.2018  251.3711  327.3800 LP  0  0  0  0  0  0  0  0  0  0  0  0  # atno 13471 bound_to 12863
  110.0776  251.3484  328.5643 LP  0  0  0  0  0  0  0  0  0  0  0  0  # atno 13472 bound_to 12863
  105.8037  254.6908  322.4452 LP  0  0  0  0  0  0  0  0  0  0  0  0  # atno 13473 bound_to 12891
  103.0954  253.8427  322.7419 LP  0  0  0  0  0  0  0  0  0  0  0  0  # atno 13474 bound_to 12894
  104.2672  253.5240  321.5068 LP  0  0  0  0  0  0  0  0  0  0  0  0  # atno 13475 bound_to 12894
  100.7302  252.4105  321.8282 LP  0  0  0  0  0  0  0  0  0  0  0  0  # atno 13476 bound_to 12952
  108.7121  245.8625  335.6543 LP  0  0  0  0  0  0  0  0  0  0  0  0  # atno 13490 bound_to 13426
  107.8339  246.5581  336.8425 LP  0  0  0  0  0  0  0  0  0  0  0  0  # atno 13491 bound_to 13426
  106.0113  253.5895  335.0550 LP  0  0  0  0  0  0  0  0  0  0  0  0  # atno 13492 bound_to 1232
  109.5508  246.7022  318.1708 LP  0  0  0  0  0  0  0  0  0  0  0  0  # atno 13493 bound_to 5543
  109.3627  246.3224  319.8502 LP  0  0  0  0  0  0  0  0  0  0  0  0  # atno 13494 bound_to 5543
  106.9415  243.8032  319.9936 LP  0  0  0  0  0  0  0  0  0  0  0  0  # atno 13495 bound_to 5545
  105.3580  243.8360  320.3909 LP  0  0  0  0  0  0  0  0  0  0  0  0  # atno 13496 bound_to 5545
  117.3641  249.5601  329.1219 LP  0  0  0  0  0  0  0  0  0  0  0  0  # atno 13497 bound_to 3502
  118.8019  249.5039  330.0860 LP  0  0  0  0  0  0  0  0  0  0  0  0  # atno 13498 bound_to 3502
  118.5782  251.2605  328.8745 LP  0  0  0  0  0  0  0  0  0  0  0  0  # atno 13499 bound_to 3542
  122.1242  251.9165  328.5414 LP  0  0  0  0  0  0  0  0  0  0  0  0  # atno 13500 bound_to 3545
  123.1031  250.9343  327.5036 LP  0  0  0  0  0  0  0  0  0  0  0  0  # atno 13501 bound_to 3545
  121.4346  249.9294  328.3075 LP  0  0  0  0  0  0  0  0  0  0  0  0  # atno 13502 bound_to 3563
  122.7023  248.5080  326.5384 LP  0  0  0  0  0  0  0  0  0  0  0  0  # atno 13503 bound_to 3592
  117.1099  244.5142  318.3627 LP  0  0  0  0  0  0  0  0  0  0  0  0  # atno 13505 bound_to 8400
  118.1559  243.1352  318.4285 LP  0  0  0  0  0  0  0  0  0  0  0  0  # atno 13506 bound_to 8400
  115.0041  242.2166  317.6897 LP  0  0  0  0  0  0  0  0  0  0  0  0  # atno 13507 bound_to 8423
  114.1126  246.1906  317.3723 LP  0  0  0  0  0  0  0  0  0  0  0  0  # atno 13508 bound_to 8445
  113.9115  248.8177  317.4197 LP  0  0  0  0  0  0  0  0  0  0  0  0  # atno 13509 bound_to 8448
  112.7111  248.9547  316.1786 LP  0  0  0  0  0  0  0  0  0  0  0  0  # atno 13510 bound_to 8448
  115.2381  247.6436  317.2749 LP  0  0  0  0  0  0  0  0  0  0  0  0  # atno 13511 bound_to 8940
  116.1117  246.1501  317.1955 LP  0  0  0  0  0  0  0  0  0  0  0  0  # atno 13512 bound_to 8940
  117.9579  247.9212  316.8667 LP  0  0  0  0  0  0  0  0  0  0  0  0  # atno 13513 bound_to 8972
  120.5151  247.3599  316.2549 LP  0  0  0  0  0  0  0  0  0  0  0  0  # atno 13514 bound_to 8975
  121.7275  246.2369  316.7736 LP  0  0  0  0  0  0  0  0  0  0  0  0  # atno 13515 bound_to 8975
  119.3883  244.3081  318.4317 LP  0  0  0  0  0  0  0  0  0  0  0  0  # atno 13516 bound_to 8992
  121.9118  242.6813  317.0511 LP  0  0  0  0  0  0  0  0  0  0  0  0  # atno 13517 bound_to 8995
  120.9028  241.6972  318.0579 LP  0  0  0  0  0  0  0  0  0  0  0  0  # atno 13518 bound_to 8995
  122.0651  243.1637  319.1183 LP  0  0  0  0  0  0  0  0  0  0  0  0  # atno 13519 bound_to 9016
  122.3589  242.7061  322.8930 LP  0  0  0  0  0  0  0  0  0  0  0  0  # atno 13520 bound_to 9019
  120.6393  242.5029  322.9364 LP  0  0  0  0  0  0  0  0  0  0  0  0  # atno 13521 bound_to 9019
  120.7750  240.0949  321.3373 LP  0  0  0  0  0  0  0  0  0  0  0  0  # atno 13522 bound_to 9062
  121.8698  240.6101  324.9905 LP  0  0  0  0  0  0  0  0  0  0  0  0  # atno 13523 bound_to 9100
  112.2069  244.8356  316.4575 LP  0  0  0  0  0  0  0  0  0  0  0  0  # atno 13528 bound_to 8426
  111.9962  244.2025  318.0558 LP  0  0  0  0  0  0  0  0  0  0  0  0  # atno 13529 bound_to 8426
  115.1197  240.5194  316.7018 LP  0  0  0  0  0  0  0  0  0  0  0  0  # atno 13530 bound_to 8363
  114.9856  238.9543  317.4316 LP  0  0  0  0  0  0  0  0  0  0  0  0  # atno 13531 bound_to 8363
  111.7983  248.1214  317.8712 LP  0  0  0  0  0  0  0  0  0  0  0  0  # atno 13532 bound_to 8476
  114.0805  239.8500  322.6864 LP  0  0  0  0  0  0  0  0  0  0  0  0  # atno 13533 bound_to 9073
  113.9134  238.2258  322.7124 LP  0  0  0  0  0  0  0  0  0  0  0  0  # atno 13534 bound_to 9073
  114.6965  248.3357  315.2589 LP  0  0  0  0  0  0  0  0  0  0  0  0  # atno 13535 bound_to 8937
  119.7692  245.6580  314.7530 LP  0  0  0  0  0  0  0  0  0  0  0  0  # atno 13536 bound_to 8977
  118.6313  245.0986  313.7240 LP  0  0  0  0  0  0  0  0  0  0  0  0  # atno 13537 bound_to 8977
  123.9850  246.5669  318.2794 LP  0  0  0  0  0  0  0  0  0  0  0  0  # atno 13538 bound_to 4885
  125.4560  247.2701  318.1884 LP  0  0  0  0  0  0  0  0  0  0  0  0  # atno 13539 bound_to 4885
  107.8826  243.7318  318.9087 LP  0  0  0  0  0  0  0  0  0  0  0  0  # atno 13540 bound_to 5565
  110.4250  244.2032  315.6637 LP  0  0  0  0  0  0  0  0  0  0  0  0  # atno 13541 bound_to 5598
  111.7511  239.4981  317.6798 LP  0  0  0  0  0  0  0  0  0  0  0  0  # atno 13542 bound_to 5639
  110.2953  239.3278  318.6027 LP  0  0  0  0  0  0  0  0  0  0  0  0  # atno 13543 bound_to 5639
  110.7808  239.1486  320.3970 LP  0  0  0  0  0  0  0  0  0  0  0  0  # atno 13544 bound_to 8319
  112.1521  239.2372  321.2791 LP  0  0  0  0  0  0  0  0  0  0  0  0  # atno 13545 bound_to 8319
  113.4344  237.2241  328.4198 LP  0  0  0  0  0  0  0  0  0  0  0  0  # atno 13548 bound_to 9180
  113.5172  238.9355  328.6731 LP  0  0  0  0  0  0  0  0  0  0  0  0  # atno 13549 bound_to 9180
  111.2784  240.8427  314.2123 LP  0  0  0  0  0  0  0  0  0  0  0  0  # atno 13552 bound_to 5636

> <Gold.Score>
     Fitness  S(hb_ext) S(vdw_ext)  S(hb_int)    S(int)      intcor
     29.83       1.39      20.71       0.00      -0.03      -0.76

> <Gold.Goldscore.Fitness>
29.8289

> <Gold.Goldscore.Internal.Vdw>
-0.3989

> <Gold.Goldscore.Internal.Torsion>
-0.3883

> <Gold.Goldscore.External.Vdw>
20.7072

> <Gold.Goldscore.Internal.HBond>
0.0000

> <Gold.Goldscore.External.HBond>
1.3853

> <Gold.Goldscore.Internal.Correction>
-0.7585

> <Gold.Goldscore.Hbonds>
donor molecule, donor type, donor heavy atom, donor atom, acceptor molecule, acceptor atom, score
      P1  H  5572  5581       L1    17  0.06
      P1  H  5545  5550       L1    17  0.35
      L1  H     8    22       P1  5543  0.28

> <Gold.Goldscore.Internal.Vdw.Weighted>
-0.3989

> <Gold.Goldscore.Internal.Torsion.Weighted>
-0.3883

> <Gold.Goldscore.External.Vdw.Weighted>
28.4723

> <Gold.Goldscore.Internal.HBond.Weighted>
0.0000

> <Gold.Goldscore.External.HBond.Weighted>
1.3853

> <Gold.Goldscore.Internal.Correction.Weighted>
-0.7585

> <Gold.Rescore>
     Score     S(PLP)   S(hbond)     S(cho)   S(metal)  DE(clash)   DE(tors)     intcor
     25.21     -22.56       1.00       0.00       0.00       0.00       0.17       ----

> <Gold.PLP.Fitness>
25.2142

> <Gold.PLP.PLP>
-22.5589

> <Gold.PLP.part.hbond>
-2.6541

> <Gold.PLP.part.metal>
0.0000

> <Gold.PLP.part.buried>
2.5115

> <Gold.PLP.part.nonpolar>
-24.2438

> <Gold.PLP.part.repulsive>
0.5546

> <Gold.PLP.ligand.clash>
0.0000

> <Gold.PLP.ligand.torsion>
0.1723

> <Gold.PLP.Chemscore.Hbond>
1.0000

> <Gold.PLP.Chemscore.CHOScore>
0.0000

> <Gold.PLP.Chemscore.Metal>
0.0000

> <Gold.Chemscore.Hbonds>
donor molecule, donor type, donor heavy atom, donor atom, acceptor molecule, acceptor atom, score
      P1  H  5545  5550       L1    17  0.90

> <Gold.PLP.Chemscore.Internal.Correction>
   9.000000E+99

