#       Name:                CT1002167954
#       Creating user name   hitesit
#       Creation time:       Sun Apr 16 22:52:04 2023


#       File generated by GOLD software.
#

@<TRIPOS>MOLECULE
CT1002167954|ligand_prepared|mol2|1|dock3
    29    30     1
SMALL
NO_CHARGES


@<TRIPOS>ATOM
      1 C1         111.2508 245.5395 324.1250 C.3            1 RES1               0.0000
      2 C2         112.7441 245.2487 323.8714 C.ar           1 RES1               0.0000
      3 C3         111.2019 246.7263 325.0827 C.2            1 RES1               0.0000
      4 C4         110.6322 245.8164 322.7592 C.2            1 RES1               0.0000
      5 C5         110.4844 244.3591 324.7660 C.3            1 RES1               0.0000
      6 C6         113.1371 244.0966 323.1969 C.ar           1 RES1               0.0000
      7 C7         113.7382 246.1228 324.3030 C.ar           1 RES1               0.0000
      8 N8         110.8326 247.9356 324.5719 N.am           1 RES1               0.0000
      9 O9         111.5209 246.6111 326.2597 O.2            1 RES1               0.0000
     10 N10        110.1565 247.0778 322.5136 N.am           1 RES1               0.0000
     11 O11        110.5675 244.9582 321.8876 O.2            1 RES1               0.0000
     12 C12        109.0143 244.6499 325.0233 C.3            1 RES1               0.0000
     13 C13        114.4753 243.8295 322.9597 C.ar           1 RES1               0.0000
     14 C14        115.0759 245.8537 324.0649 C.ar           1 RES1               0.0000
     15 C15        110.2565 248.1583 323.3471 C.2            1 RES1               0.0000
     16 C16        115.4454 244.7079 323.3931 C.ar           1 RES1               0.0000
     17 O17        109.8533 249.2746 323.0334 O.2            1 RES1               0.0000
     18 H18        110.5615 243.4873 324.1047 H              1 RES1               0.0000
     19 H19        110.9651 244.1013 325.7179 H              1 RES1               0.0000
     20 H20        112.3880 243.3925 322.8505 H              1 RES1               0.0000
     21 H21        113.4708 247.0298 324.8345 H              1 RES1               0.0000
     22 H22        111.0002 248.7498 325.1545 H              1 RES1               0.0000
     23 H23        109.6841 247.2249 321.6273 H              1 RES1               0.0000
     24 H24        108.5239 243.7894 325.4735 H              1 RES1               0.0000
     25 H25        108.9007 245.4961 325.6978 H              1 RES1               0.0000
     26 H26        108.4995 244.8856 324.0941 H              1 RES1               0.0000
     27 H27        114.7610 242.9257 322.4317 H              1 RES1               0.0000
     28 H28        115.8360 246.5475 324.4084 H              1 RES1               0.0000
     29 H29        116.4936 244.4986 323.2068 H              1 RES1               0.0000
@<TRIPOS>BOND
    1    1    2 1     
    2    1    3 1     
    3    1    4 1     
    4    1    5 1     
    5    2    6 ar    
    6    2    7 ar    
    7    3    8 1     
    8    3    9 2     
    9    4   10 1     
   10    4   11 2     
   11    5   12 1     
   12    5   18 1     
   13    5   19 1     
   14    6   13 ar    
   15    6   20 1     
   16    7   14 ar    
   17    7   21 1     
   18    8   15 1     
   19    8   22 1     
   20   10   15 1     
   21   10   23 1     
   22   12   24 1     
   23   12   25 1     
   24   12   26 1     
   25   13   16 ar    
   26   13   27 1     
   27   14   16 ar    
   28   14   28 1     
   29   15   17 2     
   30   16   29 1     
@<TRIPOS>SUBSTRUCTURE
      1 RES1           1
@<TRIPOS>SET
DONOR_HYDROGENS      STATIC     ATOMS    <user>   **** ""
2 22 23
ATOM$RED        STATIC     ATOMS    COLORGROUP SYSTEM
2 22 23
@<TRIPOS>COMMENT
> <Gold.Version>
2022.3.0

> <Gold.Id.Protein>
unknown|4uch_clean|pdb

> <Gold.Protein.RotatedTorsions>
[ 1282 1268 1269 1270 ] final   69.45 input   42.93 | X-H torsion
[ 12864 12852 12853 12854 ] final -162.68 input  102.46 | X-H torsion
[ 12872 12863 12862 12860 ] final  -89.57 input   59.97 | X-H torsion
[ 12900 12891 12892 12893 ] final    1.74 input   33.49 | X-H torsion
[ 12960 12952 12953 12954 ] final  -39.64 input  127.22 | X-H torsion
[ 13446 13426 13425 13421 ] final   82.05 input   59.98 | X-H torsion
[ 1244 1232 1233 1234 ] final   72.32 input  119.89 | X-H torsion
[ 5550 5545 5544 5541 ] final   -0.21 input   60.01 | X-H torsion
[ 3548 3542 3543 3544 ] final -135.02 input   78.91 | X-H torsion
[ 3570 3563 3564 3565 ] final   29.61 input  104.01 | X-H torsion
[ 3596 3592 3593 3594 ] final  -93.01 input   81.17 | X-H torsion
[ 8428 8423 8424 8425 ] final   94.09 input   41.93 | X-H torsion
[ 8452 8445 8446 8447 ] final   80.38 input   98.48 | X-H torsion
[ 8978 8972 8973 8974 ] final  -10.57 input   32.89 | X-H torsion
[ 8996 8992 8993 8994 ] final   22.47 input   45.98 | X-H torsion
[ 9030 9016 9017 9018 ] final -122.76 input   38.77 | X-H torsion
[ 9074 9062 9063 9064 ] final  153.42 input   99.93 | X-H torsion
[ 9108 9100 9101 9102 ] final -103.54 input   97.82 | X-H torsion
[ 8482 8476 8477 8478 ] final  155.18 input   55.16 | X-H torsion
[ 9082 9073 9072 9070 ] final  -88.86 input   60.02 | X-H torsion
[ 8948 8937 8938 8939 ] final   -0.81 input   49.52 | X-H torsion
[ 8982 8977 8976 8973 ] final   79.80 input   60.00 | X-H torsion
[ 4890 4885 4884 4881 ] final -129.55 input   59.99 | X-H torsion
[ 5574 5565 5566 5567 ] final -144.75 input   50.85 | X-H torsion
[ 5606 5598 5599 5600 ] final -100.19 input  117.92 | X-H torsion
[ 8328 8319 8318 8316 ] final  162.07 input   59.98 | X-H torsion
[ 5644 5636 5637 5638 ] final -111.86 input   69.86 | X-H torsion
[ 13451 13428 13427 13425 ] final -179.28 input   60.01 | X-H torsion
[ 8508 8500 8501 8502 ] final  168.30 input   75.08 | X-H torsion
[ 4906 4901 4902 4903 ] final   61.87 input   29.84 | X-H torsion
[ 13460 1235 1234 1233 ] final   64.36 input    0.00 | X-H torsion
[ 13464 8503 8502 8501 ] final  -69.51 input    0.00 | X-H torsion
[ 13466 12822 12821 12820 ] final  130.03 input   -0.00 | X-H torsion
[ 13469 12855 12854 12853 ] final  -35.89 input   -0.00 | X-H torsion
[ 13474 12894 12893 12892 ] final  168.02 input    0.00 | X-H torsion
[ 13493 5543 5542 5541 ] final  -73.86 input    0.00 | X-H torsion
[ 13497 3502 3501 3500 ] final  -27.77 input   -0.00 | X-H torsion
[ 13500 3545 3544 3543 ] final   32.80 input    0.00 | X-H torsion
[ 13505 8400 8399 8398 ] final -172.57 input   -0.00 | X-H torsion
[ 13509 8448 8447 8446 ] final  152.15 input    0.00 | X-H torsion
[ 13511 8940 8939 8938 ] final  149.27 input    0.00 | X-H torsion
[ 13514 8975 8974 8973 ] final    4.77 input   -0.00 | X-H torsion
[ 13517 8995 8994 8993 ] final  104.09 input    0.00 | X-H torsion
[ 13520 9019 9018 9017 ] final   25.62 input   -0.00 | X-H torsion
[ 13528 8426 8425 8424 ] final   49.11 input    0.00 | X-H torsion
[ 13530 8363 8362 8361 ] final  -77.24 input    0.00 | X-H torsion
[ 13542 5639 5638 5637 ] final  132.35 input    0.00 | X-H torsion
[ 13548 9180 9179 9178 ] final   51.94 input   -0.00 | X-H torsion

> <Gold.Protein.ActiveResidues>
 TRP311  MET341  HIS342  TRP414  ALA417  ARG419  CYS420  VAL421  GLY422  ARG423 
 SER462  ALA463  SER482  GLN483  LEU484  ILE485  ARG486  TRP566  TYR567  LEU569 
 PRO570  ALA571  VAL572  SER573  ASN574  MET575  PHE589  SER590  GLY591  TRP592 
 TYR593  MET594  GLU597  ILE598  ARG601  ASP602  ARG608  TRP683  PHE696  GLU710 
 TYR711  GLN712  PRO713  ASP714  HEM750  H4B760 

> <Gold.Protein.RotatedAtoms>
  106.0014  253.6578  335.0074 H   0  0  0  0  0  0  0  0  0  0  0  0  # atno 1244 bound_to 1232
  105.4592  254.5119  332.7549 H   0  0  0  0  0  0  0  0  0  0  0  0  # atno 1282 bound_to 1268
  118.3704  251.3751  328.5511 H   0  0  0  0  0  0  0  0  0  0  0  0  # atno 3548 bound_to 3542
  121.3755  248.6417  327.5731 H   0  0  0  0  0  0  0  0  0  0  0  0  # atno 3570 bound_to 3563
  123.9543  248.3581  327.7477 H   0  0  0  0  0  0  0  0  0  0  0  0  # atno 3596 bound_to 3592
  124.3478  247.1251  318.4972 H   0  0  0  0  0  0  0  0  0  0  0  0  # atno 4890 bound_to 4885
  121.5213  246.8251  314.5717 H   0  0  0  0  0  0  0  0  0  0  0  0  # atno 4906 bound_to 4901
  106.5969  243.7416  319.7816 H   0  0  0  0  0  0  0  0  0  0  0  0  # atno 5550 bound_to 5545
  108.2537  245.0746  318.7247 H   0  0  0  0  0  0  0  0  0  0  0  0  # atno 5574 bound_to 5565
  109.7494  243.7068  315.8785 H   0  0  0  0  0  0  0  0  0  0  0  0  # atno 5606 bound_to 5598
  110.4315  240.9705  314.4058 H   0  0  0  0  0  0  0  0  0  0  0  0  # atno 5644 bound_to 5636
  112.1087  239.3345  321.1417 H   0  0  0  0  0  0  0  0  0  0  0  0  # atno 8328 bound_to 8319
  114.6849  242.2350  317.7909 H   0  0  0  0  0  0  0  0  0  0  0  0  # atno 8428 bound_to 8423
  114.8077  246.6177  318.2645 H   0  0  0  0  0  0  0  0  0  0  0  0  # atno 8452 bound_to 8445
  111.4215  246.8815  317.3806 H   0  0  0  0  0  0  0  0  0  0  0  0  # atno 8482 bound_to 8476
  108.8070  248.5734  317.7079 H   0  0  0  0  0  0  0  0  0  0  0  0  # atno 8508 bound_to 8500
  114.6395  248.3938  315.6425 H   0  0  0  0  0  0  0  0  0  0  0  0  # atno 8948 bound_to 8937
  118.8079  247.9400  316.3911 H   0  0  0  0  0  0  0  0  0  0  0  0  # atno 8978 bound_to 8972
  119.9993  244.4947  314.8215 H   0  0  0  0  0  0  0  0  0  0  0  0  # atno 8982 bound_to 8977
  119.4246  244.2218  318.3261 H   0  0  0  0  0  0  0  0  0  0  0  0  # atno 8996 bound_to 8992
  121.5147  243.1935  319.2867 H   0  0  0  0  0  0  0  0  0  0  0  0  # atno 9030 bound_to 9016
  120.9033  239.6728  321.3093 H   0  0  0  0  0  0  0  0  0  0  0  0  # atno 9074 bound_to 9062
  113.9031  238.3148  322.8230 H   0  0  0  0  0  0  0  0  0  0  0  0  # atno 9082 bound_to 9073
  121.7652  240.0797  324.8911 H   0  0  0  0  0  0  0  0  0  0  0  0  # atno 9108 bound_to 9100
  109.8622  256.1408  324.0256 H   0  0  0  0  0  0  0  0  0  0  0  0  # atno 12864 bound_to 12852
  110.0875  251.4328  328.6353 H   0  0  0  0  0  0  0  0  0  0  0  0  # atno 12872 bound_to 12863
  105.7401  254.7304  322.5690 H   0  0  0  0  0  0  0  0  0  0  0  0  # atno 12900 bound_to 12891
  100.8838  253.4767  320.4530 H   0  0  0  0  0  0  0  0  0  0  0  0  # atno 12960 bound_to 12952
  109.1336  246.4140  337.3053 H   0  0  0  0  0  0  0  0  0  0  0  0  # atno 13446 bound_to 13426
  109.4140  250.7261  337.4150 H   0  0  0  0  0  0  0  0  0  0  0  0  # atno 13451 bound_to 13428
  108.4312  253.4507  330.9495 LP  0  0  0  0  0  0  0  0  0  0  0  0  # atno 13460 bound_to 1235
  108.8999  254.9636  331.6505 LP  0  0  0  0  0  0  0  0  0  0  0  0  # atno 13461 bound_to 1235
  107.2100  254.5555  332.7074 LP  0  0  0  0  0  0  0  0  0  0  0  0  # atno 13462 bound_to 1268
  106.4782  252.8756  318.5452 LP  0  0  0  0  0  0  0  0  0  0  0  0  # atno 13464 bound_to 8503
  107.0648  252.7008  320.1655 LP  0  0  0  0  0  0  0  0  0  0  0  0  # atno 13465 bound_to 8503
  109.8135  255.1372  321.7326 LP  0  0  0  0  0  0  0  0  0  0  0  0  # atno 13466 bound_to 12822
  109.8377  256.6234  320.8433 LP  0  0  0  0  0  0  0  0  0  0  0  0  # atno 13467 bound_to 12822
  108.8706  257.5293  323.6596 LP  0  0  0  0  0  0  0  0  0  0  0  0  # atno 13468 bound_to 12852
  106.9327  258.1464  323.5524 LP  0  0  0  0  0  0  0  0  0  0  0  0  # atno 13469 bound_to 12855
  106.4026  258.1087  321.9039 LP  0  0  0  0  0  0  0  0  0  0  0  0  # atno 13470 bound_to 12855
  111.2859  252.5186  328.4552 LP  0  0  0  0  0  0  0  0  0  0  0  0  # atno 13471 bound_to 12863
  111.1224  251.2941  327.3872 LP  0  0  0  0  0  0  0  0  0  0  0  0  # atno 13472 bound_to 12863
  106.7159  256.1253  322.1749 LP  0  0  0  0  0  0  0  0  0  0  0  0  # atno 13473 bound_to 12891
  102.8210  253.6153  322.1970 LP  0  0  0  0  0  0  0  0  0  0  0  0  # atno 13474 bound_to 12894
  104.5416  253.7514  322.0517 LP  0  0  0  0  0  0  0  0  0  0  0  0  # atno 13475 bound_to 12894
  100.7966  252.3949  321.8236 LP  0  0  0  0  0  0  0  0  0  0  0  0  # atno 13476 bound_to 12952
  109.0914  245.8204  335.7909 LP  0  0  0  0  0  0  0  0  0  0  0  0  # atno 13490 bound_to 13426
  107.7382  246.4337  336.4687 LP  0  0  0  0  0  0  0  0  0  0  0  0  # atno 13491 bound_to 13426
  107.6524  253.4437  335.5479 LP  0  0  0  0  0  0  0  0  0  0  0  0  # atno 13492 bound_to 1232
  109.2965  246.9746  318.2959 LP  0  0  0  0  0  0  0  0  0  0  0  0  # atno 13493 bound_to 5543
  109.6171  246.0500  319.7250 LP  0  0  0  0  0  0  0  0  0  0  0  0  # atno 13494 bound_to 5543
  105.3332  243.9294  320.7902 LP  0  0  0  0  0  0  0  0  0  0  0  0  # atno 13495 bound_to 5545
  106.8580  244.1187  321.3433 LP  0  0  0  0  0  0  0  0  0  0  0  0  # atno 13496 bound_to 5545
  117.8373  249.7892  330.3936 LP  0  0  0  0  0  0  0  0  0  0  0  0  # atno 13497 bound_to 3502
  118.3287  249.2748  328.8144 LP  0  0  0  0  0  0  0  0  0  0  0  0  # atno 13498 bound_to 3502
  119.8288  252.3340  328.5223 LP  0  0  0  0  0  0  0  0  0  0  0  0  # atno 13499 bound_to 3542
  122.0030  252.0284  328.1387 LP  0  0  0  0  0  0  0  0  0  0  0  0  # atno 13500 bound_to 3545
  123.2243  250.8224  327.9063 LP  0  0  0  0  0  0  0  0  0  0  0  0  # atno 13501 bound_to 3545
  120.9834  249.5607  329.0120 LP  0  0  0  0  0  0  0  0  0  0  0  0  # atno 13502 bound_to 3563
  122.6963  248.4852  326.5419 LP  0  0  0  0  0  0  0  0  0  0  0  0  # atno 13503 bound_to 3592
  117.1227  244.4592  318.1004 LP  0  0  0  0  0  0  0  0  0  0  0  0  # atno 13505 bound_to 8400
  118.1430  243.1902  318.6908 LP  0  0  0  0  0  0  0  0  0  0  0  0  # atno 13506 bound_to 8400
  115.5339  243.1896  318.9792 LP  0  0  0  0  0  0  0  0  0  0  0  0  # atno 13507 bound_to 8423
  113.7387  245.2452  318.0947 LP  0  0  0  0  0  0  0  0  0  0  0  0  # atno 13508 bound_to 8445
  112.7828  248.8238  316.1159 LP  0  0  0  0  0  0  0  0  0  0  0  0  # atno 13509 bound_to 8448
  113.8398  248.9486  317.4824 LP  0  0  0  0  0  0  0  0  0  0  0  0  # atno 13510 bound_to 8448
  116.0151  246.1259  317.0358 LP  0  0  0  0  0  0  0  0  0  0  0  0  # atno 13511 bound_to 8940
  115.3347  247.6679  317.4346 LP  0  0  0  0  0  0  0  0  0  0  0  0  # atno 13512 bound_to 8940
  117.3076  247.3414  315.7261 LP  0  0  0  0  0  0  0  0  0  0  0  0  # atno 13513 bound_to 8972
  120.5231  247.1907  316.0262 LP  0  0  0  0  0  0  0  0  0  0  0  0  # atno 13514 bound_to 8975
  121.7196  246.4061  317.0023 LP  0  0  0  0  0  0  0  0  0  0  0  0  # atno 13515 bound_to 8975
  119.8864  245.7987  317.7300 LP  0  0  0  0  0  0  0  0  0  0  0  0  # atno 13516 bound_to 8992
  122.2628  242.1223  317.4377 LP  0  0  0  0  0  0  0  0  0  0  0  0  # atno 13517 bound_to 8995
  120.5518  242.2562  317.6712 LP  0  0  0  0  0  0  0  0  0  0  0  0  # atno 13518 bound_to 8995
  122.5900  243.5112  320.6255 LP  0  0  0  0  0  0  0  0  0  0  0  0  # atno 13519 bound_to 9016
  121.3868  243.1382  322.2420 LP  0  0  0  0  0  0  0  0  0  0  0  0  # atno 13520 bound_to 9019
  121.6114  242.0708  323.5875 LP  0  0  0  0  0  0  0  0  0  0  0  0  # atno 13521 bound_to 9019
  122.1745  240.5418  322.1348 LP  0  0  0  0  0  0  0  0  0  0  0  0  # atno 13522 bound_to 9062
  120.3666  240.8473  325.6037 LP  0  0  0  0  0  0  0  0  0  0  0  0  # atno 13523 bound_to 9100
  112.3010  243.7300  317.5527 LP  0  0  0  0  0  0  0  0  0  0  0  0  # atno 13528 bound_to 8426
  111.9022  245.3081  316.9607 LP  0  0  0  0  0  0  0  0  0  0  0  0  # atno 13529 bound_to 8426
  115.1993  240.2412  316.3782 LP  0  0  0  0  0  0  0  0  0  0  0  0  # atno 13530 bound_to 8363
  114.9059  239.2324  317.7552 LP  0  0  0  0  0  0  0  0  0  0  0  0  # atno 13531 bound_to 8363
  110.8779  248.2094  318.3756 LP  0  0  0  0  0  0  0  0  0  0  0  0  # atno 13532 bound_to 8476
  114.2423  238.8476  321.3233 LP  0  0  0  0  0  0  0  0  0  0  0  0  # atno 13533 bound_to 9073
  114.1106  239.9070  322.5590 LP  0  0  0  0  0  0  0  0  0  0  0  0  # atno 13534 bound_to 9073
  114.9152  249.9708  314.9382 LP  0  0  0  0  0  0  0  0  0  0  0  0  # atno 13535 bound_to 8937
  119.2750  245.8762  314.3576 LP  0  0  0  0  0  0  0  0  0  0  0  0  # atno 13536 bound_to 8977
  118.7638  244.4436  313.7636 LP  0  0  0  0  0  0  0  0  0  0  0  0  # atno 13537 bound_to 8977
  125.7676  246.7949  317.7744 LP  0  0  0  0  0  0  0  0  0  0  0  0  # atno 13538 bound_to 4885
  124.5009  245.7803  317.5942 LP  0  0  0  0  0  0  0  0  0  0  0  0  # atno 13539 bound_to 4885
  107.5141  243.6934  317.9505 LP  0  0  0  0  0  0  0  0  0  0  0  0  # atno 13540 bound_to 5565
  111.3852  243.1287  316.0835 LP  0  0  0  0  0  0  0  0  0  0  0  0  # atno 13541 bound_to 5598
  110.2956  239.7845  318.4285 LP  0  0  0  0  0  0  0  0  0  0  0  0  # atno 13542 bound_to 5639
  111.7508  239.0414  317.8540 LP  0  0  0  0  0  0  0  0  0  0  0  0  # atno 13543 bound_to 5639
  111.1671  238.1443  321.7299 LP  0  0  0  0  0  0  0  0  0  0  0  0  # atno 13544 bound_to 8319
  110.6692  239.0249  320.4480 LP  0  0  0  0  0  0  0  0  0  0  0  0  # atno 13545 bound_to 8319
  113.4225  238.8289  328.1151 LP  0  0  0  0  0  0  0  0  0  0  0  0  # atno 13548 bound_to 9180
  113.5291  237.3308  328.9778 LP  0  0  0  0  0  0  0  0  0  0  0  0  # atno 13549 bound_to 9180
  111.6703  241.0100  315.6405 LP  0  0  0  0  0  0  0  0  0  0  0  0  # atno 13552 bound_to 5636

> <Gold.Score>
     Fitness  S(hb_ext) S(vdw_ext)  S(hb_int)    S(int)      intcor
     34.08       4.11      23.07       0.00      -1.74      -0.77

> <Gold.Goldscore.Fitness>
34.0825

> <Gold.Goldscore.Internal.Vdw>
-2.1410

> <Gold.Goldscore.Internal.Torsion>
-0.3681

> <Gold.Goldscore.External.Vdw>
23.0650

> <Gold.Goldscore.Internal.HBond>
0.0000

> <Gold.Goldscore.External.HBond>
4.1118

> <Gold.Goldscore.Internal.Correction>
-0.7653

> <Gold.Goldscore.Hbonds>
donor molecule, donor type, donor heavy atom, donor atom, acceptor molecule, acceptor atom, score
      L1  H     8    22       P1 13311  0.67
      L1  H    10    23       P1  5543  0.05

> <Gold.Goldscore.Internal.Vdw.Weighted>
-2.1410

> <Gold.Goldscore.Internal.Torsion.Weighted>
-0.3681

> <Gold.Goldscore.External.Vdw.Weighted>
31.7144

> <Gold.Goldscore.Internal.HBond.Weighted>
0.0000

> <Gold.Goldscore.External.HBond.Weighted>
4.1118

> <Gold.Goldscore.Internal.Correction.Weighted>
-0.7653

> <Gold.Rescore>
     Score     S(PLP)   S(hbond)     S(cho)   S(metal)  DE(clash)   DE(tors)     intcor
     23.34     -22.32       0.89       0.00       0.00       0.46       0.60       ----

> <Gold.PLP.Fitness>
23.3360

> <Gold.PLP.PLP>
-22.3184

> <Gold.PLP.part.hbond>
-2.7076

> <Gold.PLP.part.metal>
0.0000

> <Gold.PLP.part.buried>
-2.3391

> <Gold.PLP.part.nonpolar>
-23.0988

> <Gold.PLP.part.repulsive>
4.3446

> <Gold.PLP.ligand.clash>
0.4641

> <Gold.PLP.ligand.torsion>
0.5973

> <Gold.PLP.Chemscore.Hbond>
0.8921

> <Gold.PLP.Chemscore.CHOScore>
0.0000

> <Gold.PLP.Chemscore.Metal>
0.0000

> <Gold.Chemscore.Hbonds>
donor molecule, donor type, donor heavy atom, donor atom, acceptor molecule, acceptor atom, score
      L1  H     8    22       P1 13311  0.42
      P1  H  5572  5581       L1    11  0.08

> <Gold.PLP.Chemscore.Internal.Correction>
   9.000000E+99

