#       Name:                CT1002167954
#       Creating user name   hitesit
#       Creation time:       Sun Apr 16 22:52:10 2023


#       File generated by GOLD software.
#

@<TRIPOS>MOLECULE
CT1002167954|ligand_prepared|mol2|1|dock10
    29    30     1
SMALL
NO_CHARGES


@<TRIPOS>ATOM
      1 C1         112.0185 242.4757 326.2426 C.3            1 RES1               0.0000
      2 C2         111.3499 243.8606 326.3600 C.ar           1 RES1               0.0000
      3 C3         111.5787 241.9001 324.8996 C.2            1 RES1               0.0000
      4 C4         113.5199 242.7160 326.3547 C.2            1 RES1               0.0000
      5 C5         111.6082 241.4872 327.3588 C.3            1 RES1               0.0000
      6 C6         111.6768 244.8828 325.4739 C.ar           1 RES1               0.0000
      7 C7         110.4041 244.1298 327.3457 C.ar           1 RES1               0.0000
      8 N8         112.4984 241.8708 323.8931 N.am           1 RES1               0.0000
      9 O9         110.4310 241.5143 324.7149 O.2            1 RES1               0.0000
     10 N10        114.2963 242.4511 325.2571 N.am           1 RES1               0.0000
     11 O11        114.0355 243.1481 327.3783 O.2            1 RES1               0.0000
     12 C12        112.3544 240.1632 327.3100 C.3            1 RES1               0.0000
     13 C13        111.0779 246.1280 325.5679 C.ar           1 RES1               0.0000
     14 C14        109.8064 245.3760 327.4380 C.ar           1 RES1               0.0000
     15 C15        113.8497 242.0686 324.0216 C.2            1 RES1               0.0000
     16 C16        110.1421 246.3754 326.5496 C.ar           1 RES1               0.0000
     17 O17        114.6049 241.9023 323.0681 O.2            1 RES1               0.0000
     18 H18        111.7894 241.9590 328.3324 H              1 RES1               0.0000
     19 H19        110.5323 241.2892 327.2772 H              1 RES1               0.0000
     20 H20        112.4129 244.7075 324.6964 H              1 RES1               0.0000
     21 H21        110.1253 243.3591 328.0561 H              1 RES1               0.0000
     22 H22        112.1492 241.6846 322.9584 H              1 RES1               0.0000
     23 H23        115.3002 242.5480 325.3716 H              1 RES1               0.0000
     24 H24        112.0288 239.5070 328.1144 H              1 RES1               0.0000
     25 H25        112.1764 239.6547 326.3648 H              1 RES1               0.0000
     26 H26        113.4261 240.3205 327.4138 H              1 RES1               0.0000
     27 H27        111.3465 246.9116 324.8672 H              1 RES1               0.0000
     28 H28        109.0709 245.5663 328.2126 H              1 RES1               0.0000
     29 H29        109.6727 247.3508 326.6228 H              1 RES1               0.0000
@<TRIPOS>BOND
    1    1    2 1     
    2    1    3 1     
    3    1    4 1     
    4    1    5 1     
    5    2    6 ar    
    6    2    7 ar    
    7    3    8 1     
    8    3    9 2     
    9    4   10 1     
   10    4   11 2     
   11    5   12 1     
   12    5   18 1     
   13    5   19 1     
   14    6   13 ar    
   15    6   20 1     
   16    7   14 ar    
   17    7   21 1     
   18    8   15 1     
   19    8   22 1     
   20   10   15 1     
   21   10   23 1     
   22   12   24 1     
   23   12   25 1     
   24   12   26 1     
   25   13   16 ar    
   26   13   27 1     
   27   14   16 ar    
   28   14   28 1     
   29   15   17 2     
   30   16   29 1     
@<TRIPOS>SUBSTRUCTURE
      1 RES1           1
@<TRIPOS>SET
DONOR_HYDROGENS      STATIC     ATOMS    <user>   **** ""
2 22 23
ATOM$RED        STATIC     ATOMS    COLORGROUP SYSTEM
2 22 23
@<TRIPOS>COMMENT
> <Gold.Version>
2022.3.0

> <Gold.Id.Protein>
unknown|4uch_clean|pdb

> <Gold.Protein.RotatedTorsions>
[ 1282 1268 1269 1270 ] final  128.42 input   42.93 | X-H torsion
[ 12864 12852 12853 12854 ] final  103.01 input  102.46 | X-H torsion
[ 12872 12863 12862 12860 ] final  109.49 input   59.97 | X-H torsion
[ 12900 12891 12892 12893 ] final  172.86 input   33.49 | X-H torsion
[ 12960 12952 12953 12954 ] final  123.25 input  127.22 | X-H torsion
[ 13446 13426 13425 13421 ] final  134.92 input   59.98 | X-H torsion
[ 1244 1232 1233 1234 ] final -126.17 input  119.89 | X-H torsion
[ 5550 5545 5544 5541 ] final -158.53 input   60.01 | X-H torsion
[ 3548 3542 3543 3544 ] final   45.53 input   78.91 | X-H torsion
[ 3570 3563 3564 3565 ] final  104.39 input  104.01 | X-H torsion
[ 3596 3592 3593 3594 ] final   19.77 input   81.17 | X-H torsion
[ 8428 8423 8424 8425 ] final -159.25 input   41.93 | X-H torsion
[ 8452 8445 8446 8447 ] final   80.28 input   98.48 | X-H torsion
[ 8978 8972 8973 8974 ] final  -43.06 input   32.89 | X-H torsion
[ 8996 8992 8993 8994 ] final -135.77 input   45.98 | X-H torsion
[ 9030 9016 9017 9018 ] final  154.17 input   38.77 | X-H torsion
[ 9074 9062 9063 9064 ] final -175.55 input   99.93 | X-H torsion
[ 9108 9100 9101 9102 ] final  -97.58 input   97.82 | X-H torsion
[ 8482 8476 8477 8478 ] final  108.37 input   55.16 | X-H torsion
[ 9082 9073 9072 9070 ] final   16.07 input   60.02 | X-H torsion
[ 8948 8937 8938 8939 ] final   81.53 input   49.52 | X-H torsion
[ 8982 8977 8976 8973 ] final  -97.96 input   60.00 | X-H torsion
[ 4890 4885 4884 4881 ] final   -4.68 input   59.99 | X-H torsion
[ 5574 5565 5566 5567 ] final   -8.32 input   50.85 | X-H torsion
[ 5606 5598 5599 5600 ] final   26.71 input  117.92 | X-H torsion
[ 8328 8319 8318 8316 ] final  114.81 input   59.98 | X-H torsion
[ 5644 5636 5637 5638 ] final  111.91 input   69.86 | X-H torsion
[ 13451 13428 13427 13425 ] final  -62.85 input   60.01 | X-H torsion
[ 8508 8500 8501 8502 ] final  -94.01 input   75.08 | X-H torsion
[ 4906 4901 4902 4903 ] final  -42.43 input   29.84 | X-H torsion
[ 13460 1235 1234 1233 ] final   66.70 input    0.00 | X-H torsion
[ 13464 8503 8502 8501 ] final   76.99 input    0.00 | X-H torsion
[ 13466 12822 12821 12820 ] final   -0.16 input   -0.00 | X-H torsion
[ 13469 12855 12854 12853 ] final -157.77 input   -0.00 | X-H torsion
[ 13474 12894 12893 12892 ] final  -14.20 input    0.00 | X-H torsion
[ 13493 5543 5542 5541 ] final  -30.33 input    0.00 | X-H torsion
[ 13497 3502 3501 3500 ] final -170.93 input   -0.00 | X-H torsion
[ 13500 3545 3544 3543 ] final   44.32 input    0.00 | X-H torsion
[ 13505 8400 8399 8398 ] final  -64.82 input   -0.00 | X-H torsion
[ 13509 8448 8447 8446 ] final -132.56 input    0.00 | X-H torsion
[ 13511 8940 8939 8938 ] final  -52.33 input    0.00 | X-H torsion
[ 13514 8975 8974 8973 ] final -167.49 input   -0.00 | X-H torsion
[ 13517 8995 8994 8993 ] final    6.39 input    0.00 | X-H torsion
[ 13520 9019 9018 9017 ] final  120.41 input   -0.00 | X-H torsion
[ 13528 8426 8425 8424 ] final  -99.15 input    0.00 | X-H torsion
[ 13530 8363 8362 8361 ] final   80.86 input    0.00 | X-H torsion
[ 13542 5639 5638 5637 ] final   76.83 input    0.00 | X-H torsion
[ 13548 9180 9179 9178 ] final  175.72 input   -0.00 | X-H torsion

> <Gold.Protein.ActiveResidues>
 TRP311  MET341  HIS342  TRP414  ALA417  ARG419  CYS420  VAL421  GLY422  ARG423 
 SER462  ALA463  SER482  GLN483  LEU484  ILE485  ARG486  TRP566  TYR567  LEU569 
 PRO570  ALA571  VAL572  SER573  ASN574  MET575  PHE589  SER590  GLY591  TRP592 
 TYR593  MET594  GLU597  ILE598  ARG601  ASP602  ARG608  TRP683  PHE696  GLU710 
 TYR711  GLN712  PRO713  ASP714  HEM750  H4B760 

> <Gold.Protein.RotatedAtoms>
  107.5833  253.1730  335.5957 H   0  0  0  0  0  0  0  0  0  0  0  0  # atno 1244 bound_to 1232
  105.8856  254.0793  332.1195 H   0  0  0  0  0  0  0  0  0  0  0  0  # atno 1282 bound_to 1268
  119.8349  252.3499  328.5182 H   0  0  0  0  0  0  0  0  0  0  0  0  # atno 3548 bound_to 3542
  120.8491  248.2927  328.4534 H   0  0  0  0  0  0  0  0  0  0  0  0  # atno 3570 bound_to 3563
  123.2729  249.2262  326.7747 H   0  0  0  0  0  0  0  0  0  0  0  0  # atno 3596 bound_to 3592
  124.5734  245.7739  317.5607 H   0  0  0  0  0  0  0  0  0  0  0  0  # atno 4890 bound_to 4885
  122.1077  247.9801  315.0865 H   0  0  0  0  0  0  0  0  0  0  0  0  # atno 4906 bound_to 4901
  105.6306  244.0661  321.3131 H   0  0  0  0  0  0  0  0  0  0  0  0  # atno 5550 bound_to 5545
  107.5293  244.1975  317.5422 H   0  0  0  0  0  0  0  0  0  0  0  0  # atno 5574 bound_to 5565
  110.8252  242.6280  316.2974 H   0  0  0  0  0  0  0  0  0  0  0  0  # atno 5606 bound_to 5598
  111.9391  240.8678  315.0631 H   0  0  0  0  0  0  0  0  0  0  0  0  # atno 5644 bound_to 5636
  112.0642  238.8029  321.6701 H   0  0  0  0  0  0  0  0  0  0  0  0  # atno 8328 bound_to 8319
  115.9650  242.6776  318.1806 H   0  0  0  0  0  0  0  0  0  0  0  0  # atno 8428 bound_to 8423
  114.8074  246.6181  318.2631 H   0  0  0  0  0  0  0  0  0  0  0  0  # atno 8452 bound_to 8445
  110.7810  246.7863  317.6455 H   0  0  0  0  0  0  0  0  0  0  0  0  # atno 8482 bound_to 8476
  109.2336  249.5639  316.9373 H   0  0  0  0  0  0  0  0  0  0  0  0  # atno 8508 bound_to 8500
  114.6460  249.4587  316.1211 H   0  0  0  0  0  0  0  0  0  0  0  0  # atno 8948 bound_to 8937
  118.4686  247.9942  316.7453 H   0  0  0  0  0  0  0  0  0  0  0  0  # atno 8978 bound_to 8972
  118.7062  245.4112  313.8250 H   0  0  0  0  0  0  0  0  0  0  0  0  # atno 8982 bound_to 8977
  119.9744  245.6255  317.4624 H   0  0  0  0  0  0  0  0  0  0  0  0  # atno 8996 bound_to 8992
  122.6808  243.2311  319.3518 H   0  0  0  0  0  0  0  0  0  0  0  0  # atno 9030 bound_to 9016
  120.7534  240.1202  321.3366 H   0  0  0  0  0  0  0  0  0  0  0  0  # atno 9074 bound_to 9062
  114.0605  239.7902  322.7702 H   0  0  0  0  0  0  0  0  0  0  0  0  # atno 9082 bound_to 9073
  121.7157  240.0025  324.8889 H   0  0  0  0  0  0  0  0  0  0  0  0  # atno 9108 bound_to 9100
  109.1065  256.9594  324.6734 H   0  0  0  0  0  0  0  0  0  0  0  0  # atno 12864 bound_to 12852
  111.5609  252.2764  327.9097 H   0  0  0  0  0  0  0  0  0  0  0  0  # atno 12872 bound_to 12863
  106.7573  256.0744  322.0548 H   0  0  0  0  0  0  0  0  0  0  0  0  # atno 12900 bound_to 12891
  100.5422  252.4530  321.8314 H   0  0  0  0  0  0  0  0  0  0  0  0  # atno 12960 bound_to 12952
  108.3260  246.6191  337.3050 H   0  0  0  0  0  0  0  0  0  0  0  0  # atno 13446 bound_to 13426
  110.4227  250.0352  336.3971 H   0  0  0  0  0  0  0  0  0  0  0  0  # atno 13451 bound_to 13428
  108.4103  253.4683  330.9271 LP  0  0  0  0  0  0  0  0  0  0  0  0  # atno 13460 bound_to 1235
  108.9208  254.9459  331.6729 LP  0  0  0  0  0  0  0  0  0  0  0  0  # atno 13461 bound_to 1235
  106.8000  254.9715  333.3182 LP  0  0  0  0  0  0  0  0  0  0  0  0  # atno 13462 bound_to 1268
  106.7318  252.3362  320.0930 LP  0  0  0  0  0  0  0  0  0  0  0  0  # atno 13464 bound_to 8503
  106.8112  253.2402  318.6177 LP  0  0  0  0  0  0  0  0  0  0  0  0  # atno 13465 bound_to 8503
  110.4949  256.3503  321.0030 LP  0  0  0  0  0  0  0  0  0  0  0  0  # atno 13466 bound_to 12822
  109.1563  255.4103  321.5729 LP  0  0  0  0  0  0  0  0  0  0  0  0  # atno 13467 bound_to 12822
  109.6154  256.7224  323.0211 LP  0  0  0  0  0  0  0  0  0  0  0  0  # atno 13468 bound_to 12852
  105.8282  258.0913  322.5183 LP  0  0  0  0  0  0  0  0  0  0  0  0  # atno 13469 bound_to 12855
  107.5071  258.1638  322.9380 LP  0  0  0  0  0  0  0  0  0  0  0  0  # atno 13470 bound_to 12855
  110.5961  250.9928  327.6464 LP  0  0  0  0  0  0  0  0  0  0  0  0  # atno 13471 bound_to 12863
  110.3282  251.9703  328.9268 LP  0  0  0  0  0  0  0  0  0  0  0  0  # atno 13472 bound_to 12863
  105.7219  254.8120  322.6774 LP  0  0  0  0  0  0  0  0  0  0  0  0  # atno 13473 bound_to 12891
  104.5392  253.7398  322.0203 LP  0  0  0  0  0  0  0  0  0  0  0  0  # atno 13474 bound_to 12894
  102.8234  253.6269  322.2284 LP  0  0  0  0  0  0  0  0  0  0  0  0  # atno 13475 bound_to 12894
  101.1297  253.3932  320.4795 LP  0  0  0  0  0  0  0  0  0  0  0  0  # atno 13476 bound_to 12952
  109.5623  245.9706  336.4694 LP  0  0  0  0  0  0  0  0  0  0  0  0  # atno 13490 bound_to 13426
  108.0809  246.0770  335.7906 LP  0  0  0  0  0  0  0  0  0  0  0  0  # atno 13491 bound_to 13426
  106.1219  253.9127  334.9787 LP  0  0  0  0  0  0  0  0  0  0  0  0  # atno 13492 bound_to 1232
  108.9701  247.1976  318.8020 LP  0  0  0  0  0  0  0  0  0  0  0  0  # atno 13493 bound_to 5543
  109.9434  245.8269  319.2189 LP  0  0  0  0  0  0  0  0  0  0  0  0  # atno 13494 bound_to 5543
  107.1832  244.0095  320.8279 LP  0  0  0  0  0  0  0  0  0  0  0  0  # atno 13495 bound_to 5545
  105.9810  243.7118  319.7636 LP  0  0  0  0  0  0  0  0  0  0  0  0  # atno 13496 bound_to 5545
  118.7664  249.2668  329.1429 LP  0  0  0  0  0  0  0  0  0  0  0  0  # atno 13497 bound_to 3502
  117.3996  249.7972  330.0650 LP  0  0  0  0  0  0  0  0  0  0  0  0  # atno 13498 bound_to 3502
  118.3876  251.3747  328.5546 LP  0  0  0  0  0  0  0  0  0  0  0  0  # atno 13499 bound_to 3542
  122.0334  252.0015  328.3078 LP  0  0  0  0  0  0  0  0  0  0  0  0  # atno 13500 bound_to 3545
  123.1939  250.8492  327.7372 LP  0  0  0  0  0  0  0  0  0  0  0  0  # atno 13501 bound_to 3545
  121.4906  249.8969  328.1638 LP  0  0  0  0  0  0  0  0  0  0  0  0  # atno 13502 bound_to 3563
  123.3626  247.6362  327.4934 LP  0  0  0  0  0  0  0  0  0  0  0  0  # atno 13503 bound_to 3592
  117.6723  243.8972  319.2577 LP  0  0  0  0  0  0  0  0  0  0  0  0  # atno 13505 bound_to 8400
  117.5935  243.7522  317.5335 LP  0  0  0  0  0  0  0  0  0  0  0  0  # atno 13506 bound_to 8400
  114.2718  242.7533  318.5949 LP  0  0  0  0  0  0  0  0  0  0  0  0  # atno 13507 bound_to 8423
  113.7390  245.2448  318.0961 LP  0  0  0  0  0  0  0  0  0  0  0  0  # atno 13508 bound_to 8445
  112.7564  249.5449  316.8894 LP  0  0  0  0  0  0  0  0  0  0  0  0  # atno 13509 bound_to 8448
  113.8662  248.2275  316.7089 LP  0  0  0  0  0  0  0  0  0  0  0  0  # atno 13510 bound_to 8448
  115.5369  247.6240  317.6848 LP  0  0  0  0  0  0  0  0  0  0  0  0  # atno 13511 bound_to 8940
  115.8130  246.1697  316.7856 LP  0  0  0  0  0  0  0  0  0  0  0  0  # atno 13512 bound_to 8940
  117.6401  247.2882  315.3791 LP  0  0  0  0  0  0  0  0  0  0  0  0  # atno 13513 bound_to 8972
  121.7309  246.3306  316.9139 LP  0  0  0  0  0  0  0  0  0  0  0  0  # atno 13514 bound_to 8975
  120.5118  247.2662  316.1147 LP  0  0  0  0  0  0  0  0  0  0  0  0  # atno 13515 bound_to 8975
  119.3499  244.4288  318.5729 LP  0  0  0  0  0  0  0  0  0  0  0  0  # atno 13516 bound_to 8992
  121.2711  242.8645  317.0297 LP  0  0  0  0  0  0  0  0  0  0  0  0  # atno 13517 bound_to 8995
  121.5436  241.5140  318.0793 LP  0  0  0  0  0  0  0  0  0  0  0  0  # atno 13518 bound_to 8995
  121.4451  243.4742  320.5616 LP  0  0  0  0  0  0  0  0  0  0  0  0  # atno 13519 bound_to 9016
  120.6553  242.4389  323.0173 LP  0  0  0  0  0  0  0  0  0  0  0  0  # atno 13520 bound_to 9019
  122.3429  242.7701  322.8121 LP  0  0  0  0  0  0  0  0  0  0  0  0  # atno 13521 bound_to 9019
  122.3210  240.1043  322.1082 LP  0  0  0  0  0  0  0  0  0  0  0  0  # atno 13522 bound_to 9062
  120.4150  240.9229  325.6058 LP  0  0  0  0  0  0  0  0  0  0  0  0  # atno 13523 bound_to 9100
  112.0857  245.0740  316.5920 LP  0  0  0  0  0  0  0  0  0  0  0  0  # atno 13528 bound_to 8426
  112.1174  243.9641  317.9213 LP  0  0  0  0  0  0  0  0  0  0  0  0  # atno 13529 bound_to 8426
  114.9636  239.0063  317.5232 LP  0  0  0  0  0  0  0  0  0  0  0  0  # atno 13530 bound_to 8363
  115.1416  240.4674  316.6103 LP  0  0  0  0  0  0  0  0  0  0  0  0  # atno 13531 bound_to 8363
  111.5073  248.3030  318.1153 LP  0  0  0  0  0  0  0  0  0  0  0  0  # atno 13532 bound_to 8476
  113.9260  238.1754  322.6210 LP  0  0  0  0  0  0  0  0  0  0  0  0  # atno 13533 bound_to 9073
  114.2685  239.0932  321.3146 LP  0  0  0  0  0  0  0  0  0  0  0  0  # atno 13534 bound_to 9073
  114.9089  248.9355  314.4730 LP  0  0  0  0  0  0  0  0  0  0  0  0  # atno 13535 bound_to 8937
  119.3928  243.9978  314.2483 LP  0  0  0  0  0  0  0  0  0  0  0  0  # atno 13536 bound_to 8977
  119.9483  245.3991  314.8764 LP  0  0  0  0  0  0  0  0  0  0  0  0  # atno 13537 bound_to 8977
  124.2845  247.0762  318.4924 LP  0  0  0  0  0  0  0  0  0  0  0  0  # atno 13538 bound_to 4885
  125.7567  246.8602  317.8196 LP  0  0  0  0  0  0  0  0  0  0  0  0  # atno 13539 bound_to 4885
  108.2225  244.5512  319.1069 LP  0  0  0  0  0  0  0  0  0  0  0  0  # atno 13540 bound_to 5565
  110.3329  244.1839  315.6737 LP  0  0  0  0  0  0  0  0  0  0  0  0  # atno 13541 bound_to 5598
  110.7880  240.2285  317.9691 LP  0  0  0  0  0  0  0  0  0  0  0  0  # atno 13542 bound_to 5639
  111.2584  238.5975  318.3134 LP  0  0  0  0  0  0  0  0  0  0  0  0  # atno 13543 bound_to 5639
  110.6030  238.2332  321.2349 LP  0  0  0  0  0  0  0  0  0  0  0  0  # atno 13544 bound_to 8319
  111.2782  239.4710  320.4111 LP  0  0  0  0  0  0  0  0  0  0  0  0  # atno 13545 bound_to 8319
  113.3956  237.3025  328.1732 LP  0  0  0  0  0  0  0  0  0  0  0  0  # atno 13548 bound_to 9180
  113.5561  238.8572  328.9197 LP  0  0  0  0  0  0  0  0  0  0  0  0  # atno 13549 bound_to 9180
  110.2075  241.1096  315.0028 LP  0  0  0  0  0  0  0  0  0  0  0  0  # atno 13552 bound_to 5636

> <Gold.Score>
     Fitness  S(hb_ext) S(vdw_ext)  S(hb_int)    S(int)      intcor
     34.45      10.54      17.49       0.00      -0.14      -0.76

> <Gold.Goldscore.Fitness>
34.4463

> <Gold.Goldscore.Internal.Vdw>
-0.4982

> <Gold.Goldscore.Internal.Torsion>
-0.4029

> <Gold.Goldscore.External.Vdw>
17.4867

> <Gold.Goldscore.Internal.HBond>
0.0000

> <Gold.Goldscore.External.HBond>
10.5447

> <Gold.Goldscore.Internal.Correction>
-0.7585

> <Gold.Goldscore.Hbonds>
donor molecule, donor type, donor heavy atom, donor atom, acceptor molecule, acceptor atom, score
      P1  H  5572  5580       L1     9  0.01
      P1  H  9073  9082       L1    17  0.05
      L1  H     8    22       P1  5573  0.99
      L1  H    10    23       P1  9184  0.74

> <Gold.Goldscore.Internal.Vdw.Weighted>
-0.4982

> <Gold.Goldscore.Internal.Torsion.Weighted>
-0.4029

> <Gold.Goldscore.External.Vdw.Weighted>
24.0442

> <Gold.Goldscore.Internal.HBond.Weighted>
0.0000

> <Gold.Goldscore.External.HBond.Weighted>
10.5447

> <Gold.Goldscore.Internal.Correction.Weighted>
-0.7585

> <Gold.Rescore>
     Score     S(PLP)   S(hbond)     S(cho)   S(metal)  DE(clash)   DE(tors)     intcor
     -3.26       9.45       2.08       0.00       0.00       0.00       0.03       ----

> <Gold.PLP.Fitness>
-3.2612

> <Gold.PLP.PLP>
9.4514

> <Gold.PLP.part.hbond>
-2.7575

> <Gold.PLP.part.metal>
0.0000

> <Gold.PLP.part.buried>
21.2725

> <Gold.PLP.part.nonpolar>
-17.1911

> <Gold.PLP.part.repulsive>
7.6041

> <Gold.PLP.ligand.clash>
0.0000

> <Gold.PLP.ligand.torsion>
0.0294

> <Gold.PLP.Chemscore.Hbond>
2.0830

> <Gold.PLP.Chemscore.CHOScore>
0.0000

> <Gold.PLP.Chemscore.Metal>
0.0000

> <Gold.Chemscore.Hbonds>
donor molecule, donor type, donor heavy atom, donor atom, acceptor molecule, acceptor atom, score
      L1  H    10    23       P1  9184  0.39
      P1  H  5572  5580       L1     9  0.61
      P1  H  9073  9082       L1    17  0.43

> <Gold.PLP.Chemscore.Internal.Correction>
   9.000000E+99

