#       Name:                CT1002167954
#       Creating user name   hitesit
#       Creation time:       Sun Apr 16 22:52:07 2023


#       File generated by GOLD software.
#

@<TRIPOS>MOLECULE
CT1002167954|ligand_prepared|mol2|1|dock7
    29    30     1
SMALL
NO_CHARGES


@<TRIPOS>ATOM
      1 C1         113.8159 243.4990 323.5119 C.3            1 RES1               0.0000
      2 C2         113.4905 242.6146 324.7328 C.ar           1 RES1               0.0000
      3 C3         112.8082 244.6447 323.5320 C.2            1 RES1               0.0000
      4 C4         115.2650 243.9421 323.6800 C.2            1 RES1               0.0000
      5 C5         113.6955 242.7628 322.1572 C.3            1 RES1               0.0000
      6 C6         113.7049 243.0843 326.0252 C.ar           1 RES1               0.0000
      7 C7         112.9740 241.3304 324.5830 C.ar           1 RES1               0.0000
      8 N8         113.2582 245.8754 323.9096 N.am           1 RES1               0.0000
      9 O9         111.6282 244.4626 323.2588 O.2            1 RES1               0.0000
     10 N10        115.5097 245.2755 323.8799 N.am           1 RES1               0.0000
     11 O11        116.1959 243.1464 323.6579 O.2            1 RES1               0.0000
     12 C12        114.1065 243.6075 320.9616 C.3            1 RES1               0.0000
     13 C13        113.4108 242.2996 327.1280 C.ar           1 RES1               0.0000
     14 C14        112.6807 240.5473 325.6873 C.ar           1 RES1               0.0000
     15 C15        114.5698 246.2580 324.0330 C.2            1 RES1               0.0000
     16 C16        112.8982 241.0310 326.9599 C.ar           1 RES1               0.0000
     17 O17        114.8667 247.4265 324.2646 O.2            1 RES1               0.0000
     18 H18        114.3235 241.8638 322.1870 H              1 RES1               0.0000
     19 H19        112.6556 242.4410 322.0214 H              1 RES1               0.0000
     20 H20        114.1100 244.0792 326.1771 H              1 RES1               0.0000
     21 H21        112.7958 240.9287 323.5913 H              1 RES1               0.0000
     22 H22        112.5546 246.5761 324.1199 H              1 RES1               0.0000
     23 H23        116.4827 245.5623 323.9179 H              1 RES1               0.0000
     24 H24        114.0031 243.0435 320.0370 H              1 RES1               0.0000
     25 H25        113.4857 244.4979 320.8867 H              1 RES1               0.0000
     26 H26        115.1437 243.9241 321.0513 H              1 RES1               0.0000
     27 H27        113.5850 242.6844 328.1274 H              1 RES1               0.0000
     28 H28        112.2780 239.5492 325.5502 H              1 RES1               0.0000
     29 H29        112.6675 240.4166 327.8239 H              1 RES1               0.0000
@<TRIPOS>BOND
    1    1    2 1     
    2    1    3 1     
    3    1    4 1     
    4    1    5 1     
    5    2    6 ar    
    6    2    7 ar    
    7    3    8 1     
    8    3    9 2     
    9    4   10 1     
   10    4   11 2     
   11    5   12 1     
   12    5   18 1     
   13    5   19 1     
   14    6   13 ar    
   15    6   20 1     
   16    7   14 ar    
   17    7   21 1     
   18    8   15 1     
   19    8   22 1     
   20   10   15 1     
   21   10   23 1     
   22   12   24 1     
   23   12   25 1     
   24   12   26 1     
   25   13   16 ar    
   26   13   27 1     
   27   14   16 ar    
   28   14   28 1     
   29   15   17 2     
   30   16   29 1     
@<TRIPOS>SUBSTRUCTURE
      1 RES1           1
@<TRIPOS>SET
DONOR_HYDROGENS      STATIC     ATOMS    <user>   **** ""
2 22 23
ATOM$RED        STATIC     ATOMS    COLORGROUP SYSTEM
2 22 23
@<TRIPOS>COMMENT
> <Gold.Version>
2022.3.0

> <Gold.Id.Protein>
unknown|4uch_clean|pdb

> <Gold.Protein.RotatedTorsions>
[ 1282 1268 1269 1270 ] final    7.59 input   42.93 | X-H torsion
[ 12864 12852 12853 12854 ] final  111.74 input  102.46 | X-H torsion
[ 12872 12863 12862 12860 ] final    9.21 input   59.97 | X-H torsion
[ 12900 12891 12892 12893 ] final -146.75 input   33.49 | X-H torsion
[ 12960 12952 12953 12954 ] final   17.03 input  127.22 | X-H torsion
[ 13446 13426 13425 13421 ] final  -79.88 input   59.98 | X-H torsion
[ 1244 1232 1233 1234 ] final -145.20 input  119.89 | X-H torsion
[ 5550 5545 5544 5541 ] final -170.11 input   60.01 | X-H torsion
[ 3548 3542 3543 3544 ] final  100.48 input   78.91 | X-H torsion
[ 3570 3563 3564 3565 ] final  146.72 input  104.01 | X-H torsion
[ 3596 3592 3593 3594 ] final   88.63 input   81.17 | X-H torsion
[ 8428 8423 8424 8425 ] final -135.38 input   41.93 | X-H torsion
[ 8452 8445 8446 8447 ] final -122.20 input   98.48 | X-H torsion
[ 8978 8972 8973 8974 ] final -124.21 input   32.89 | X-H torsion
[ 8996 8992 8993 8994 ] final -143.53 input   45.98 | X-H torsion
[ 9030 9016 9017 9018 ] final -128.21 input   38.77 | X-H torsion
[ 9074 9062 9063 9064 ] final -106.23 input   99.93 | X-H torsion
[ 9108 9100 9101 9102 ] final  144.64 input   97.82 | X-H torsion
[ 8482 8476 8477 8478 ] final  -16.13 input   55.16 | X-H torsion
[ 9082 9073 9072 9070 ] final  -21.83 input   60.02 | X-H torsion
[ 8948 8937 8938 8939 ] final   42.67 input   49.52 | X-H torsion
[ 8982 8977 8976 8973 ] final   83.89 input   60.00 | X-H torsion
[ 4890 4885 4884 4881 ] final    9.57 input   59.99 | X-H torsion
[ 5574 5565 5566 5567 ] final -154.39 input   50.85 | X-H torsion
[ 5606 5598 5599 5600 ] final   14.33 input  117.92 | X-H torsion
[ 8328 8319 8318 8316 ] final -167.25 input   59.98 | X-H torsion
[ 5644 5636 5637 5638 ] final  103.48 input   69.86 | X-H torsion
[ 13451 13428 13427 13425 ] final  -21.58 input   60.01 | X-H torsion
[ 8508 8500 8501 8502 ] final   43.02 input   75.08 | X-H torsion
[ 4906 4901 4902 4903 ] final -174.08 input   29.84 | X-H torsion
[ 13460 1235 1234 1233 ] final   69.91 input    0.00 | X-H torsion
[ 13464 8503 8502 8501 ] final  -51.19 input    0.00 | X-H torsion
[ 13466 12822 12821 12820 ] final  152.65 input   -0.00 | X-H torsion
[ 13469 12855 12854 12853 ] final  116.12 input   -0.00 | X-H torsion
[ 13474 12894 12893 12892 ] final  142.47 input    0.00 | X-H torsion
[ 13493 5543 5542 5541 ] final  -85.29 input    0.00 | X-H torsion
[ 13497 3502 3501 3500 ] final   -8.31 input   -0.00 | X-H torsion
[ 13500 3545 3544 3543 ] final  -69.16 input    0.00 | X-H torsion
[ 13505 8400 8399 8398 ] final   22.15 input   -0.00 | X-H torsion
[ 13509 8448 8447 8446 ] final   82.69 input    0.00 | X-H torsion
[ 13511 8940 8939 8938 ] final  -68.18 input    0.00 | X-H torsion
[ 13514 8975 8974 8973 ] final  139.34 input   -0.00 | X-H torsion
[ 13517 8995 8994 8993 ] final -145.29 input    0.00 | X-H torsion
[ 13520 9019 9018 9017 ] final  -37.68 input   -0.00 | X-H torsion
[ 13528 8426 8425 8424 ] final  128.08 input    0.00 | X-H torsion
[ 13530 8363 8362 8361 ] final   86.38 input    0.00 | X-H torsion
[ 13542 5639 5638 5637 ] final  133.35 input    0.00 | X-H torsion
[ 13548 9180 9179 9178 ] final  166.16 input   -0.00 | X-H torsion

> <Gold.Protein.ActiveResidues>
 TRP311  MET341  HIS342  TRP414  ALA417  ARG419  CYS420  VAL421  GLY422  ARG423 
 SER462  ALA463  SER482  GLN483  LEU484  ILE485  ARG486  TRP566  TYR567  LEU569 
 PRO570  ALA571  VAL572  SER573  ASN574  MET575  PHE589  SER590  GLY591  TRP592 
 TYR593  MET594  GLU597  ILE598  ARG601  ASP602  ARG608  TRP683  PHE696  GLU710 
 TYR711  GLN712  PRO713  ASP714  HEM750  H4B760 

> <Gold.Protein.RotatedAtoms>
  107.3992  252.9451  335.6208 H   0  0  0  0  0  0  0  0  0  0  0  0  # atno 1244 bound_to 1232
  105.9361  254.9932  333.3742 H   0  0  0  0  0  0  0  0  0  0  0  0  # atno 1282 bound_to 1268
  119.3000  252.4508  327.9159 H   0  0  0  0  0  0  0  0  0  0  0  0  # atno 3548 bound_to 3542
  120.7441  248.6796  328.9575 H   0  0  0  0  0  0  0  0  0  0  0  0  # atno 3570 bound_to 3563
  122.6789  248.4614  326.5298 H   0  0  0  0  0  0  0  0  0  0  0  0  # atno 3596 bound_to 3592
  124.7902  245.7679  317.4780 H   0  0  0  0  0  0  0  0  0  0  0  0  # atno 4890 bound_to 4885
  122.9677  247.0918  314.0545 H   0  0  0  0  0  0  0  0  0  0  0  0  # atno 4906 bound_to 4901
  105.7819  244.0976  321.4218 H   0  0  0  0  0  0  0  0  0  0  0  0  # atno 5550 bound_to 5545
  108.2683  244.9851  318.8423 H   0  0  0  0  0  0  0  0  0  0  0  0  # atno 5574 bound_to 5565
  110.6378  242.5984  316.3138 H   0  0  0  0  0  0  0  0  0  0  0  0  # atno 5606 bound_to 5598
  111.9280  240.8891  315.1914 H   0  0  0  0  0  0  0  0  0  0  0  0  # atno 5644 bound_to 5636
  111.8521  239.5222  320.7614 H   0  0  0  0  0  0  0  0  0  0  0  0  # atno 8328 bound_to 8319
  115.9696  242.8863  318.4780 H   0  0  0  0  0  0  0  0  0  0  0  0  # atno 8428 bound_to 8423
  113.8333  245.1907  318.4199 H   0  0  0  0  0  0  0  0  0  0  0  0  # atno 8452 bound_to 8445
  110.7633  248.1479  318.4041 H   0  0  0  0  0  0  0  0  0  0  0  0  # atno 8482 bound_to 8476
  109.7177  249.5654  318.5023 H   0  0  0  0  0  0  0  0  0  0  0  0  # atno 8508 bound_to 8500
  114.5961  248.8716  316.0912 H   0  0  0  0  0  0  0  0  0  0  0  0  # atno 8948 bound_to 8937
  117.3697  247.6896  316.6145 H   0  0  0  0  0  0  0  0  0  0  0  0  # atno 8978 bound_to 8972
  119.9767  244.4372  314.7959 H   0  0  0  0  0  0  0  0  0  0  0  0  # atno 8982 bound_to 8977
  119.9519  245.7054  317.5486 H   0  0  0  0  0  0  0  0  0  0  0  0  # atno 8996 bound_to 8992
  121.5830  243.1842  319.2392 H   0  0  0  0  0  0  0  0  0  0  0  0  # atno 9030 bound_to 9016
  121.1992  240.9245  321.7412 H   0  0  0  0  0  0  0  0  0  0  0  0  # atno 9074 bound_to 9062
  113.9453  239.3048  323.1178 H   0  0  0  0  0  0  0  0  0  0  0  0  # atno 9082 bound_to 9073
  121.2046  241.3213  325.4237 H   0  0  0  0  0  0  0  0  0  0  0  0  # atno 9108 bound_to 9100
  109.1821  256.8525  324.7012 H   0  0  0  0  0  0  0  0  0  0  0  0  # atno 12864 bound_to 12852
  110.8497  251.1031  327.4819 H   0  0  0  0  0  0  0  0  0  0  0  0  # atno 12872 bound_to 12863
  106.5140  256.2452  322.5877 H   0  0  0  0  0  0  0  0  0  0  0  0  # atno 12900 bound_to 12891
  100.1432  253.3794  320.8377 H   0  0  0  0  0  0  0  0  0  0  0  0  # atno 12960 bound_to 12952
  108.4422  245.9350  335.6591 H   0  0  0  0  0  0  0  0  0  0  0  0  # atno 13446 bound_to 13426
  110.0527  250.0046  335.8520 H   0  0  0  0  0  0  0  0  0  0  0  0  # atno 13451 bound_to 13428
  108.3823  253.4946  330.8974 LP  0  0  0  0  0  0  0  0  0  0  0  0  # atno 13460 bound_to 1235
  108.9488  254.9196  331.7026 LP  0  0  0  0  0  0  0  0  0  0  0  0  # atno 13461 bound_to 1235
  106.7514  254.0927  332.1119 LP  0  0  0  0  0  0  0  0  0  0  0  0  # atno 13462 bound_to 1268
  106.3311  252.6551  318.6217 LP  0  0  0  0  0  0  0  0  0  0  0  0  # atno 13464 bound_to 8503
  107.2119  252.9213  320.0890 LP  0  0  0  0  0  0  0  0  0  0  0  0  # atno 13465 bound_to 8503
  109.4814  255.1992  321.6974 LP  0  0  0  0  0  0  0  0  0  0  0  0  # atno 13466 bound_to 12822
  110.1698  256.5614  320.8785 LP  0  0  0  0  0  0  0  0  0  0  0  0  # atno 13467 bound_to 12822
  109.5408  256.8278  322.9936 LP  0  0  0  0  0  0  0  0  0  0  0  0  # atno 13468 bound_to 12852
  106.8202  258.1254  321.8756 LP  0  0  0  0  0  0  0  0  0  0  0  0  # atno 13469 bound_to 12855
  106.5151  258.1297  323.5806 LP  0  0  0  0  0  0  0  0  0  0  0  0  # atno 13470 bound_to 12855
  110.1684  251.7067  328.8307 LP  0  0  0  0  0  0  0  0  0  0  0  0  # atno 13471 bound_to 12863
  111.4721  252.4381  328.1734 LP  0  0  0  0  0  0  0  0  0  0  0  0  # atno 13472 bound_to 12863
  105.9597  254.6452  322.1566 LP  0  0  0  0  0  0  0  0  0  0  0  0  # atno 13473 bound_to 12891
  102.9245  253.7508  322.5399 LP  0  0  0  0  0  0  0  0  0  0  0  0  # atno 13474 bound_to 12894
  104.4381  253.6159  321.7087 LP  0  0  0  0  0  0  0  0  0  0  0  0  # atno 13475 bound_to 12894
  101.5188  252.4898  321.4485 LP  0  0  0  0  0  0  0  0  0  0  0  0  # atno 13476 bound_to 12952
  107.9906  246.6086  337.0697 LP  0  0  0  0  0  0  0  0  0  0  0  0  # atno 13490 bound_to 13426
  109.5355  246.1282  336.8486 LP  0  0  0  0  0  0  0  0  0  0  0  0  # atno 13491 bound_to 13426
  106.3001  254.1333  334.9545 LP  0  0  0  0  0  0  0  0  0  0  0  0  # atno 13492 bound_to 1232
  109.4063  246.8646  318.2210 LP  0  0  0  0  0  0  0  0  0  0  0  0  # atno 13493 bound_to 5543
  109.5072  246.1599  319.8000 LP  0  0  0  0  0  0  0  0  0  0  0  0  # atno 13494 bound_to 5543
  107.2055  243.9669  320.6439 LP  0  0  0  0  0  0  0  0  0  0  0  0  # atno 13495 bound_to 5545
  105.8063  243.7227  319.8382 LP  0  0  0  0  0  0  0  0  0  0  0  0  # atno 13496 bound_to 5545
  117.5808  249.8075  330.2535 LP  0  0  0  0  0  0  0  0  0  0  0  0  # atno 13497 bound_to 3502
  118.5852  249.2565  328.9544 LP  0  0  0  0  0  0  0  0  0  0  0  0  # atno 13498 bound_to 3502
  118.9139  251.2754  329.1473 LP  0  0  0  0  0  0  0  0  0  0  0  0  # atno 13499 bound_to 3542
  122.6514  251.3724  327.1589 LP  0  0  0  0  0  0  0  0  0  0  0  0  # atno 13500 bound_to 3545
  122.5759  251.4783  328.8861 LP  0  0  0  0  0  0  0  0  0  0  0  0  # atno 13501 bound_to 3545
  121.5917  249.5242  327.6781 LP  0  0  0  0  0  0  0  0  0  0  0  0  # atno 13502 bound_to 3563
  123.9435  248.3842  327.7329 LP  0  0  0  0  0  0  0  0  0  0  0  0  # atno 13503 bound_to 3592
  118.1573  243.1401  318.4751 LP  0  0  0  0  0  0  0  0  0  0  0  0  # atno 13505 bound_to 8400
  117.1085  244.5093  318.3161 LP  0  0  0  0  0  0  0  0  0  0  0  0  # atno 13506 bound_to 8400
  114.2672  242.5474  318.3018 LP  0  0  0  0  0  0  0  0  0  0  0  0  # atno 13507 bound_to 8423
  114.6897  246.6380  317.9431 LP  0  0  0  0  0  0  0  0  0  0  0  0  # atno 13508 bound_to 8445
  113.5332  248.2112  316.3041 LP  0  0  0  0  0  0  0  0  0  0  0  0  # atno 13509 bound_to 8448
  113.0895  249.5612  317.2943 LP  0  0  0  0  0  0  0  0  0  0  0  0  # atno 13510 bound_to 8448
  115.6992  247.5260  317.8299 LP  0  0  0  0  0  0  0  0  0  0  0  0  # atno 13511 bound_to 8940
  115.6506  246.2678  316.6405 LP  0  0  0  0  0  0  0  0  0  0  0  0  # atno 13512 bound_to 8940
  118.7169  247.5867  315.5072 LP  0  0  0  0  0  0  0  0  0  0  0  0  # atno 13513 bound_to 8972
  121.4527  246.9415  317.3015 LP  0  0  0  0  0  0  0  0  0  0  0  0  # atno 13514 bound_to 8975
  120.7900  246.6553  315.7270 LP  0  0  0  0  0  0  0  0  0  0  0  0  # atno 13515 bound_to 8975
  119.3718  244.3508  318.4888 LP  0  0  0  0  0  0  0  0  0  0  0  0  # atno 13516 bound_to 8992
  121.1264  241.5836  318.1060 LP  0  0  0  0  0  0  0  0  0  0  0  0  # atno 13517 bound_to 8995
  121.6883  242.7950  317.0030 LP  0  0  0  0  0  0  0  0  0  0  0  0  # atno 13518 bound_to 8995
  122.5229  243.5203  320.6721 LP  0  0  0  0  0  0  0  0  0  0  0  0  # atno 13519 bound_to 9016
  122.2136  242.9527  322.5709 LP  0  0  0  0  0  0  0  0  0  0  0  0  # atno 13520 bound_to 9019
  120.7846  242.2562  323.2585 LP  0  0  0  0  0  0  0  0  0  0  0  0  # atno 13521 bound_to 9019
  121.8850  239.3177  321.7125 LP  0  0  0  0  0  0  0  0  0  0  0  0  # atno 13522 bound_to 9062
  120.9152  239.6323  325.0824 LP  0  0  0  0  0  0  0  0  0  0  0  0  # atno 13523 bound_to 9100
  111.8530  244.5847  318.0837 LP  0  0  0  0  0  0  0  0  0  0  0  0  # atno 13528 bound_to 8426
  112.3501  244.4534  316.4297 LP  0  0  0  0  0  0  0  0  0  0  0  0  # atno 13529 bound_to 8426
  114.9475  239.0544  317.5894 LP  0  0  0  0  0  0  0  0  0  0  0  0  # atno 13530 bound_to 8363
  115.1578  240.4193  316.5440 LP  0  0  0  0  0  0  0  0  0  0  0  0  # atno 13531 bound_to 8363
  111.5247  246.9650  317.3698 LP  0  0  0  0  0  0  0  0  0  0  0  0  # atno 13532 bound_to 8476
  114.0339  238.1047  322.0224 LP  0  0  0  0  0  0  0  0  0  0  0  0  # atno 13533 bound_to 9073
  114.2766  239.6528  321.5631 LP  0  0  0  0  0  0  0  0  0  0  0  0  # atno 13534 bound_to 9073
  114.9574  249.5063  314.5020 LP  0  0  0  0  0  0  0  0  0  0  0  0  # atno 13535 bound_to 8937
  119.3264  245.8758  314.4012 LP  0  0  0  0  0  0  0  0  0  0  0  0  # atno 13536 bound_to 8977
  118.7352  244.5020  313.7458 LP  0  0  0  0  0  0  0  0  0  0  0  0  # atno 13537 bound_to 8977
  124.1342  246.9052  318.4390 LP  0  0  0  0  0  0  0  0  0  0  0  0  # atno 13538 bound_to 4885
  125.6886  247.0373  317.9564 LP  0  0  0  0  0  0  0  0  0  0  0  0  # atno 13539 bound_to 4885
  107.4998  243.7810  317.8355 LP  0  0  0  0  0  0  0  0  0  0  0  0  # atno 13540 bound_to 5565
  110.5162  244.2129  315.6577 LP  0  0  0  0  0  0  0  0  0  0  0  0  # atno 13541 bound_to 5598
  110.2919  239.7716  318.4356 LP  0  0  0  0  0  0  0  0  0  0  0  0  # atno 13542 bound_to 5639
  111.7545  239.0543  317.8470 LP  0  0  0  0  0  0  0  0  0  0  0  0  # atno 13543 bound_to 5639
  111.6134  238.3338  321.8476 LP  0  0  0  0  0  0  0  0  0  0  0  0  # atno 13544 bound_to 8319
  110.4812  238.6463  320.7131 LP  0  0  0  0  0  0  0  0  0  0  0  0  # atno 13545 bound_to 8319
  113.3771  237.3766  328.0507 LP  0  0  0  0  0  0  0  0  0  0  0  0  # atno 13548 bound_to 9180
  113.5745  238.7830  329.0422 LP  0  0  0  0  0  0  0  0  0  0  0  0  # atno 13549 bound_to 9180
  110.2184  241.0889  314.8783 LP  0  0  0  0  0  0  0  0  0  0  0  0  # atno 13552 bound_to 5636

> <Gold.Score>
     Fitness  S(hb_ext) S(vdw_ext)  S(hb_int)    S(int)      intcor
     36.73       0.00      26.72       0.00      -0.01      -0.76

> <Gold.Goldscore.Fitness>
36.7285

> <Gold.Goldscore.Internal.Vdw>
-0.3802

> <Gold.Goldscore.Internal.Torsion>
-0.3904

> <Gold.Goldscore.External.Vdw>
26.7204

> <Gold.Goldscore.Internal.HBond>
0.0000

> <Gold.Goldscore.External.HBond>
0.0000

> <Gold.Goldscore.Internal.Correction>
-0.7585

> <Gold.Goldscore.Internal.Vdw.Weighted>
-0.3802

> <Gold.Goldscore.Internal.Torsion.Weighted>
-0.3904

> <Gold.Goldscore.External.Vdw.Weighted>
36.7406

> <Gold.Goldscore.Internal.HBond.Weighted>
0.0000

> <Gold.Goldscore.External.HBond.Weighted>
0.0000

> <Gold.Goldscore.Internal.Correction.Weighted>
-0.7585

> <Gold.Rescore>
     Score     S(PLP)   S(hbond)     S(cho)   S(metal)  DE(clash)   DE(tors)     intcor
     21.65     -22.07       0.00       0.00       0.00       0.00       0.21       ----

> <Gold.PLP.Fitness>
21.6519

> <Gold.PLP.PLP>
-22.0666

> <Gold.PLP.part.hbond>
-1.0000

> <Gold.PLP.part.metal>
0.0000

> <Gold.PLP.part.buried>
4.0514

> <Gold.PLP.part.nonpolar>
-32.2339

> <Gold.PLP.part.repulsive>
5.2881

> <Gold.PLP.ligand.clash>
0.0000

> <Gold.PLP.ligand.torsion>
0.2074

> <Gold.PLP.Chemscore.Hbond>
0.0000

> <Gold.PLP.Chemscore.CHOScore>
0.0000

> <Gold.PLP.Chemscore.Metal>
0.0000

> <Gold.PLP.Chemscore.Internal.Correction>
   9.000000E+99

