#       Name:                CT1002167954
#       Creating user name   hitesit
#       Creation time:       Sun Apr 16 22:52:09 2023


#       File generated by GOLD software.
#

@<TRIPOS>MOLECULE
CT1002167954|ligand_prepared|mol2|1|dock9
    29    30     1
SMALL
NO_CHARGES


@<TRIPOS>ATOM
      1 C1         111.1904 245.7581 324.4765 C.3            1 RES1               0.0000
      2 C2         112.5305 245.1491 324.0160 C.ar           1 RES1               0.0000
      3 C3         110.5612 246.3935 323.2401 C.2            1 RES1               0.0000
      4 C4         110.3799 244.6093 325.0663 C.2            1 RES1               0.0000
      5 C5         111.3399 246.8458 325.5656 C.3            1 RES1               0.0000
      6 C6         112.5546 244.0906 323.1128 C.ar           1 RES1               0.0000
      7 C7         113.7486 245.6358 324.4828 C.ar           1 RES1               0.0000
      8 N8         109.4984 245.7544 322.6727 N.am           1 RES1               0.0000
      9 O9         111.0155 247.4186 322.7471 O.2            1 RES1               0.0000
     10 N10        109.2308 244.2359 324.4198 N.am           1 RES1               0.0000
     11 O11        110.7348 244.0130 326.0757 O.2            1 RES1               0.0000
     12 C12        110.0142 247.3817 326.0830 C.3            1 RES1               0.0000
     13 C13        113.7531 243.5406 322.6892 C.ar           1 RES1               0.0000
     14 C14        114.9460 245.0842 324.0581 C.ar           1 RES1               0.0000
     15 C15        108.7695 244.7362 323.2327 C.2            1 RES1               0.0000
     16 C16        114.9495 244.0372 323.1611 C.ar           1 RES1               0.0000
     17 O17        107.7561 244.3111 322.6855 O.2            1 RES1               0.0000
     18 H18        111.9043 246.4270 326.4078 H              1 RES1               0.0000
     19 H19        111.9214 247.6800 325.1540 H              1 RES1               0.0000
     20 H20        111.6230 243.6850 322.7324 H              1 RES1               0.0000
     21 H21        113.7700 246.4582 325.1898 H              1 RES1               0.0000
     22 H22        109.2199 246.0619 321.7464 H              1 RES1               0.0000
     23 H23        108.6670 243.5187 324.8648 H              1 RES1               0.0000
     24 H24        110.1762 248.1416 326.8446 H              1 RES1               0.0000
     25 H25        109.4373 247.8284 325.2759 H              1 RES1               0.0000
     26 H26        109.4203 246.5828 326.5222 H              1 RES1               0.0000
     27 H27        113.7504 242.7159 321.9842 H              1 RES1               0.0000
     28 H28        115.8852 245.4777 324.4326 H              1 RES1               0.0000
     29 H29        115.8882 243.6064 322.8288 H              1 RES1               0.0000
@<TRIPOS>BOND
    1    1    2 1     
    2    1    3 1     
    3    1    4 1     
    4    1    5 1     
    5    2    6 ar    
    6    2    7 ar    
    7    3    8 1     
    8    3    9 2     
    9    4   10 1     
   10    4   11 2     
   11    5   12 1     
   12    5   18 1     
   13    5   19 1     
   14    6   13 ar    
   15    6   20 1     
   16    7   14 ar    
   17    7   21 1     
   18    8   15 1     
   19    8   22 1     
   20   10   15 1     
   21   10   23 1     
   22   12   24 1     
   23   12   25 1     
   24   12   26 1     
   25   13   16 ar    
   26   13   27 1     
   27   14   16 ar    
   28   14   28 1     
   29   15   17 2     
   30   16   29 1     
@<TRIPOS>SUBSTRUCTURE
      1 RES1           1
@<TRIPOS>SET
DONOR_HYDROGENS      STATIC     ATOMS    <user>   **** ""
2 22 23
ATOM$RED        STATIC     ATOMS    COLORGROUP SYSTEM
2 22 23
@<TRIPOS>COMMENT
> <Gold.Version>
2022.3.0

> <Gold.Id.Protein>
unknown|4uch_clean|pdb

> <Gold.Protein.RotatedTorsions>
[ 1282 1268 1269 1270 ] final -145.42 input   42.93 | X-H torsion
[ 12864 12852 12853 12854 ] final  -98.56 input  102.46 | X-H torsion
[ 12872 12863 12862 12860 ] final  157.17 input   59.97 | X-H torsion
[ 12900 12891 12892 12893 ] final -168.86 input   33.49 | X-H torsion
[ 12960 12952 12953 12954 ] final  -44.18 input  127.22 | X-H torsion
[ 13446 13426 13425 13421 ] final   57.23 input   59.98 | X-H torsion
[ 1244 1232 1233 1234 ] final -102.70 input  119.89 | X-H torsion
[ 5550 5545 5544 5541 ] final  144.95 input   60.01 | X-H torsion
[ 3548 3542 3543 3544 ] final   71.53 input   78.91 | X-H torsion
[ 3570 3563 3564 3565 ] final   93.87 input  104.01 | X-H torsion
[ 3596 3592 3593 3594 ] final  -94.58 input   81.17 | X-H torsion
[ 8428 8423 8424 8425 ] final  -63.77 input   41.93 | X-H torsion
[ 8452 8445 8446 8447 ] final  172.87 input   98.48 | X-H torsion
[ 8978 8972 8973 8974 ] final  101.64 input   32.89 | X-H torsion
[ 8996 8992 8993 8994 ] final -148.39 input   45.98 | X-H torsion
[ 9030 9016 9017 9018 ] final   18.71 input   38.77 | X-H torsion
[ 9074 9062 9063 9064 ] final    2.70 input   99.93 | X-H torsion
[ 9108 9100 9101 9102 ] final   39.81 input   97.82 | X-H torsion
[ 8482 8476 8477 8478 ] final   80.22 input   55.16 | X-H torsion
[ 9082 9073 9072 9070 ] final  142.45 input   60.02 | X-H torsion
[ 8948 8937 8938 8939 ] final  153.35 input   49.52 | X-H torsion
[ 8982 8977 8976 8973 ] final  121.39 input   60.00 | X-H torsion
[ 4890 4885 4884 4881 ] final   34.23 input   59.99 | X-H torsion
[ 5574 5565 5566 5567 ] final  -71.79 input   50.85 | X-H torsion
[ 5606 5598 5599 5600 ] final   20.43 input  117.92 | X-H torsion
[ 8328 8319 8318 8316 ] final   31.46 input   59.98 | X-H torsion
[ 5644 5636 5637 5638 ] final    7.93 input   69.86 | X-H torsion
[ 13451 13428 13427 13425 ] final   31.50 input   60.01 | X-H torsion
[ 8508 8500 8501 8502 ] final   34.00 input   75.08 | X-H torsion
[ 4906 4901 4902 4903 ] final   -7.53 input   29.84 | X-H torsion
[ 13460 1235 1234 1233 ] final -147.68 input    0.00 | X-H torsion
[ 13464 8503 8502 8501 ] final  -56.24 input    0.00 | X-H torsion
[ 13466 12822 12821 12820 ] final   23.87 input   -0.00 | X-H torsion
[ 13469 12855 12854 12853 ] final  -44.83 input   -0.00 | X-H torsion
[ 13474 12894 12893 12892 ] final  123.86 input    0.00 | X-H torsion
[ 13493 5543 5542 5541 ] final -100.10 input    0.00 | X-H torsion
[ 13497 3502 3501 3500 ] final   77.44 input   -0.00 | X-H torsion
[ 13500 3545 3544 3543 ] final   61.90 input    0.00 | X-H torsion
[ 13505 8400 8399 8398 ] final -154.75 input   -0.00 | X-H torsion
[ 13509 8448 8447 8446 ] final  -17.12 input    0.00 | X-H torsion
[ 13511 8940 8939 8938 ] final  -18.25 input    0.00 | X-H torsion
[ 13514 8975 8974 8973 ] final   23.69 input   -0.00 | X-H torsion
[ 13517 8995 8994 8993 ] final   51.67 input    0.00 | X-H torsion
[ 13520 9019 9018 9017 ] final  -66.50 input   -0.00 | X-H torsion
[ 13528 8426 8425 8424 ] final  -79.24 input    0.00 | X-H torsion
[ 13530 8363 8362 8361 ] final -106.26 input    0.00 | X-H torsion
[ 13542 5639 5638 5637 ] final  -14.87 input    0.00 | X-H torsion
[ 13548 9180 9179 9178 ] final -166.90 input   -0.00 | X-H torsion

> <Gold.Protein.ActiveResidues>
 TRP311  MET341  HIS342  TRP414  ALA417  ARG419  CYS420  VAL421  GLY422  ARG423 
 SER462  ALA463  SER482  GLN483  LEU484  ILE485  ARG486  TRP566  TYR567  LEU569 
 PRO570  ALA571  VAL572  SER573  ASN574  MET575  PHE589  SER590  GLY591  TRP592 
 TYR593  MET594  GLU597  ILE598  ARG601  ASP602  ARG608  TRP683  PHE696  GLU710 
 TYR711  GLN712  PRO713  ASP714  HEM750  H4B760 

> <Gold.Protein.RotatedAtoms>
  107.6976  253.5072  335.5168 H   0  0  0  0  0  0  0  0  0  0  0  0  # atno 1244 bound_to 1232
  107.0788  254.2757  332.2806 H   0  0  0  0  0  0  0  0  0  0  0  0  # atno 1282 bound_to 1268
  119.6412  252.4660  328.1932 H   0  0  0  0  0  0  0  0  0  0  0  0  # atno 3548 bound_to 3542
  120.9071  248.2590  328.3043 H   0  0  0  0  0  0  0  0  0  0  0  0  # atno 3570 bound_to 3563
  123.9481  248.3348  327.7512 H   0  0  0  0  0  0  0  0  0  0  0  0  # atno 3596 bound_to 3592
  125.1693  245.8726  317.4061 H   0  0  0  0  0  0  0  0  0  0  0  0  # atno 4890 bound_to 4885
  121.6751  247.6751  315.0853 H   0  0  0  0  0  0  0  0  0  0  0  0  # atno 4906 bound_to 4901
  106.4894  244.1478  321.5187 H   0  0  0  0  0  0  0  0  0  0  0  0  # atno 5550 bound_to 5545
  107.8768  245.0354  317.7448 H   0  0  0  0  0  0  0  0  0  0  0  0  # atno 5574 bound_to 5565
  110.7311  242.6083  316.3076 H   0  0  0  0  0  0  0  0  0  0  0  0  # atno 5606 bound_to 5598
  110.8354  241.1429  315.8779 H   0  0  0  0  0  0  0  0  0  0  0  0  # atno 5644 bound_to 5636
  111.0193  238.1257  321.6403 H   0  0  0  0  0  0  0  0  0  0  0  0  # atno 8328 bound_to 8319
  115.2222  243.2219  319.0988 H   0  0  0  0  0  0  0  0  0  0  0  0  # atno 8428 bound_to 8423
  114.4246  245.6491  319.0047 H   0  0  0  0  0  0  0  0  0  0  0  0  # atno 8452 bound_to 8445
  110.4849  246.9710  317.8939 H   0  0  0  0  0  0  0  0  0  0  0  0  # atno 8482 bound_to 8476
  109.7639  249.6701  318.4244 H   0  0  0  0  0  0  0  0  0  0  0  0  # atno 8508 bound_to 8500
  114.8645  250.0758  315.3125 H   0  0  0  0  0  0  0  0  0  0  0  0  # atno 8948 bound_to 8937
  118.1443  247.3482  315.2271 H   0  0  0  0  0  0  0  0  0  0  0  0  # atno 8978 bound_to 8972
  119.6402  244.0610  314.4681 H   0  0  0  0  0  0  0  0  0  0  0  0  # atno 8982 bound_to 8977
  119.9351  245.7492  317.6072 H   0  0  0  0  0  0  0  0  0  0  0  0  # atno 8996 bound_to 8992
  122.0493  243.5474  320.8218 H   0  0  0  0  0  0  0  0  0  0  0  0  # atno 9030 bound_to 9016
  122.3343  240.1298  322.1248 H   0  0  0  0  0  0  0  0  0  0  0  0  # atno 9074 bound_to 9062
  114.2596  238.9888  321.3175 H   0  0  0  0  0  0  0  0  0  0  0  0  # atno 9082 bound_to 9073
  120.2291  240.3221  325.5177 H   0  0  0  0  0  0  0  0  0  0  0  0  # atno 9108 bound_to 9100
  109.7831  256.4785  323.1593 H   0  0  0  0  0  0  0  0  0  0  0  0  # atno 12864 bound_to 12852
  111.2082  252.5183  328.5341 H   0  0  0  0  0  0  0  0  0  0  0  0  # atno 12872 bound_to 12863
  106.6737  256.1985  322.2924 H   0  0  0  0  0  0  0  0  0  0  0  0  # atno 12900 bound_to 12891
  100.9518  253.4607  320.4482 H   0  0  0  0  0  0  0  0  0  0  0  0  # atno 12960 bound_to 12952
  109.4150  246.2489  337.0699 H   0  0  0  0  0  0  0  0  0  0  0  0  # atno 13446 bound_to 13426
  109.2697  250.2441  335.6822 H   0  0  0  0  0  0  0  0  0  0  0  0  # atno 13451 bound_to 13428
  108.5899  255.0698  331.3026 LP  0  0  0  0  0  0  0  0  0  0  0  0  # atno 13460 bound_to 1235
  108.7412  253.3444  331.2974 LP  0  0  0  0  0  0  0  0  0  0  0  0  # atno 13461 bound_to 1235
  105.6528  254.7826  333.1633 LP  0  0  0  0  0  0  0  0  0  0  0  0  # atno 13462 bound_to 1268
  106.3678  252.7156  318.5926 LP  0  0  0  0  0  0  0  0  0  0  0  0  # atno 13464 bound_to 8503
  107.1752  252.8609  320.1181 LP  0  0  0  0  0  0  0  0  0  0  0  0  # atno 13465 bound_to 8503
  110.6607  256.0751  321.1667 LP  0  0  0  0  0  0  0  0  0  0  0  0  # atno 13466 bound_to 12822
  108.9905  255.6855  321.4092 LP  0  0  0  0  0  0  0  0  0  0  0  0  # atno 13467 bound_to 12822
  108.9485  257.1964  324.5133 LP  0  0  0  0  0  0  0  0  0  0  0  0  # atno 13468 bound_to 12852
  106.8015  258.1414  323.5836 LP  0  0  0  0  0  0  0  0  0  0  0  0  # atno 13469 bound_to 12855
  106.5338  258.1138  321.8726 LP  0  0  0  0  0  0  0  0  0  0  0  0  # atno 13470 bound_to 12855
  111.2018  251.3711  327.3800 LP  0  0  0  0  0  0  0  0  0  0  0  0  # atno 13471 bound_to 12863
  110.0776  251.3484  328.5643 LP  0  0  0  0  0  0  0  0  0  0  0  0  # atno 13472 bound_to 12863
  105.8037  254.6908  322.4452 LP  0  0  0  0  0  0  0  0  0  0  0  0  # atno 13473 bound_to 12891
  103.0954  253.8427  322.7419 LP  0  0  0  0  0  0  0  0  0  0  0  0  # atno 13474 bound_to 12894
  104.2672  253.5240  321.5068 LP  0  0  0  0  0  0  0  0  0  0  0  0  # atno 13475 bound_to 12894
  100.7302  252.4105  321.8282 LP  0  0  0  0  0  0  0  0  0  0  0  0  # atno 13476 bound_to 12952
  108.7121  245.8625  335.6543 LP  0  0  0  0  0  0  0  0  0  0  0  0  # atno 13490 bound_to 13426
  107.8339  246.5581  336.8425 LP  0  0  0  0  0  0  0  0  0  0  0  0  # atno 13491 bound_to 13426
  106.0113  253.5895  335.0550 LP  0  0  0  0  0  0  0  0  0  0  0  0  # atno 13492 bound_to 1232
  109.5508  246.7022  318.1708 LP  0  0  0  0  0  0  0  0  0  0  0  0  # atno 13493 bound_to 5543
  109.3627  246.3224  319.8502 LP  0  0  0  0  0  0  0  0  0  0  0  0  # atno 13494 bound_to 5543
  106.9415  243.8032  319.9936 LP  0  0  0  0  0  0  0  0  0  0  0  0  # atno 13495 bound_to 5545
  105.3580  243.8360  320.3909 LP  0  0  0  0  0  0  0  0  0  0  0  0  # atno 13496 bound_to 5545
  117.3641  249.5601  329.1219 LP  0  0  0  0  0  0  0  0  0  0  0  0  # atno 13497 bound_to 3502
  118.8019  249.5039  330.0860 LP  0  0  0  0  0  0  0  0  0  0  0  0  # atno 13498 bound_to 3502
  118.5782  251.2605  328.8745 LP  0  0  0  0  0  0  0  0  0  0  0  0  # atno 13499 bound_to 3542
  122.1242  251.9165  328.5414 LP  0  0  0  0  0  0  0  0  0  0  0  0  # atno 13500 bound_to 3545
  123.1031  250.9343  327.5036 LP  0  0  0  0  0  0  0  0  0  0  0  0  # atno 13501 bound_to 3545
  121.4346  249.9294  328.3075 LP  0  0  0  0  0  0  0  0  0  0  0  0  # atno 13502 bound_to 3563
  122.7023  248.5080  326.5384 LP  0  0  0  0  0  0  0  0  0  0  0  0  # atno 13503 bound_to 3592
  117.1099  244.5142  318.3627 LP  0  0  0  0  0  0  0  0  0  0  0  0  # atno 13505 bound_to 8400
  118.1559  243.1352  318.4285 LP  0  0  0  0  0  0  0  0  0  0  0  0  # atno 13506 bound_to 8400
  115.0041  242.2166  317.6897 LP  0  0  0  0  0  0  0  0  0  0  0  0  # atno 13507 bound_to 8423
  114.1126  246.1906  317.3723 LP  0  0  0  0  0  0  0  0  0  0  0  0  # atno 13508 bound_to 8445
  113.9115  248.8177  317.4197 LP  0  0  0  0  0  0  0  0  0  0  0  0  # atno 13509 bound_to 8448
  112.7111  248.9547  316.1786 LP  0  0  0  0  0  0  0  0  0  0  0  0  # atno 13510 bound_to 8448
  115.2381  247.6436  317.2749 LP  0  0  0  0  0  0  0  0  0  0  0  0  # atno 13511 bound_to 8940
  116.1117  246.1501  317.1955 LP  0  0  0  0  0  0  0  0  0  0  0  0  # atno 13512 bound_to 8940
  117.9579  247.9212  316.8667 LP  0  0  0  0  0  0  0  0  0  0  0  0  # atno 13513 bound_to 8972
  120.5151  247.3599  316.2549 LP  0  0  0  0  0  0  0  0  0  0  0  0  # atno 13514 bound_to 8975
  121.7275  246.2369  316.7736 LP  0  0  0  0  0  0  0  0  0  0  0  0  # atno 13515 bound_to 8975
  119.3883  244.3081  318.4317 LP  0  0  0  0  0  0  0  0  0  0  0  0  # atno 13516 bound_to 8992
  121.9118  242.6813  317.0511 LP  0  0  0  0  0  0  0  0  0  0  0  0  # atno 13517 bound_to 8995
  120.9028  241.6972  318.0579 LP  0  0  0  0  0  0  0  0  0  0  0  0  # atno 13518 bound_to 8995
  122.0651  243.1637  319.1183 LP  0  0  0  0  0  0  0  0  0  0  0  0  # atno 13519 bound_to 9016
  122.3589  242.7061  322.8930 LP  0  0  0  0  0  0  0  0  0  0  0  0  # atno 13520 bound_to 9019
  120.6393  242.5029  322.9364 LP  0  0  0  0  0  0  0  0  0  0  0  0  # atno 13521 bound_to 9019
  120.7750  240.0949  321.3373 LP  0  0  0  0  0  0  0  0  0  0  0  0  # atno 13522 bound_to 9062
  121.8698  240.6101  324.9905 LP  0  0  0  0  0  0  0  0  0  0  0  0  # atno 13523 bound_to 9100
  112.2069  244.8356  316.4575 LP  0  0  0  0  0  0  0  0  0  0  0  0  # atno 13528 bound_to 8426
  111.9962  244.2025  318.0558 LP  0  0  0  0  0  0  0  0  0  0  0  0  # atno 13529 bound_to 8426
  115.1197  240.5194  316.7018 LP  0  0  0  0  0  0  0  0  0  0  0  0  # atno 13530 bound_to 8363
  114.9856  238.9543  317.4316 LP  0  0  0  0  0  0  0  0  0  0  0  0  # atno 13531 bound_to 8363
  111.7983  248.1214  317.8712 LP  0  0  0  0  0  0  0  0  0  0  0  0  # atno 13532 bound_to 8476
  114.0805  239.8500  322.6864 LP  0  0  0  0  0  0  0  0  0  0  0  0  # atno 13533 bound_to 9073
  113.9134  238.2258  322.7124 LP  0  0  0  0  0  0  0  0  0  0  0  0  # atno 13534 bound_to 9073
  114.6965  248.3357  315.2589 LP  0  0  0  0  0  0  0  0  0  0  0  0  # atno 13535 bound_to 8937
  119.7692  245.6580  314.7530 LP  0  0  0  0  0  0  0  0  0  0  0  0  # atno 13536 bound_to 8977
  118.6313  245.0986  313.7240 LP  0  0  0  0  0  0  0  0  0  0  0  0  # atno 13537 bound_to 8977
  123.9850  246.5669  318.2794 LP  0  0  0  0  0  0  0  0  0  0  0  0  # atno 13538 bound_to 4885
  125.4560  247.2701  318.1884 LP  0  0  0  0  0  0  0  0  0  0  0  0  # atno 13539 bound_to 4885
  107.8826  243.7318  318.9087 LP  0  0  0  0  0  0  0  0  0  0  0  0  # atno 13540 bound_to 5565
  110.4250  244.2032  315.6637 LP  0  0  0  0  0  0  0  0  0  0  0  0  # atno 13541 bound_to 5598
  111.7511  239.4981  317.6798 LP  0  0  0  0  0  0  0  0  0  0  0  0  # atno 13542 bound_to 5639
  110.2953  239.3278  318.6027 LP  0  0  0  0  0  0  0  0  0  0  0  0  # atno 13543 bound_to 5639
  110.7808  239.1486  320.3970 LP  0  0  0  0  0  0  0  0  0  0  0  0  # atno 13544 bound_to 8319
  112.1521  239.2372  321.2791 LP  0  0  0  0  0  0  0  0  0  0  0  0  # atno 13545 bound_to 8319
  113.4344  237.2241  328.4198 LP  0  0  0  0  0  0  0  0  0  0  0  0  # atno 13548 bound_to 9180
  113.5172  238.9355  328.6731 LP  0  0  0  0  0  0  0  0  0  0  0  0  # atno 13549 bound_to 9180
  111.2784  240.8427  314.2123 LP  0  0  0  0  0  0  0  0  0  0  0  0  # atno 13552 bound_to 5636

> <Gold.Score>
     Fitness  S(hb_ext) S(vdw_ext)  S(hb_int)    S(int)      intcor
     29.83       1.39      20.71       0.00      -0.03      -0.76

> <Gold.Goldscore.Fitness>
29.8289

> <Gold.Goldscore.Internal.Vdw>
-0.3989

> <Gold.Goldscore.Internal.Torsion>
-0.3883

> <Gold.Goldscore.External.Vdw>
20.7072

> <Gold.Goldscore.Internal.HBond>
0.0000

> <Gold.Goldscore.External.HBond>
1.3853

> <Gold.Goldscore.Internal.Correction>
-0.7585

> <Gold.Goldscore.Hbonds>
donor molecule, donor type, donor heavy atom, donor atom, acceptor molecule, acceptor atom, score
      P1  H  5572  5581       L1    17  0.06
      P1  H  5545  5550       L1    17  0.35
      L1  H     8    22       P1  5543  0.28

> <Gold.Goldscore.Internal.Vdw.Weighted>
-0.3989

> <Gold.Goldscore.Internal.Torsion.Weighted>
-0.3883

> <Gold.Goldscore.External.Vdw.Weighted>
28.4723

> <Gold.Goldscore.Internal.HBond.Weighted>
0.0000

> <Gold.Goldscore.External.HBond.Weighted>
1.3853

> <Gold.Goldscore.Internal.Correction.Weighted>
-0.7585

> <Gold.Rescore>
     Score     S(PLP)   S(hbond)     S(cho)   S(metal)  DE(clash)   DE(tors)     intcor
     25.21     -22.56       1.00       0.00       0.00       0.00       0.17       ----

> <Gold.PLP.Fitness>
25.2142

> <Gold.PLP.PLP>
-22.5589

> <Gold.PLP.part.hbond>
-2.6541

> <Gold.PLP.part.metal>
0.0000

> <Gold.PLP.part.buried>
2.5115

> <Gold.PLP.part.nonpolar>
-24.2438

> <Gold.PLP.part.repulsive>
0.5546

> <Gold.PLP.ligand.clash>
0.0000

> <Gold.PLP.ligand.torsion>
0.1723

> <Gold.PLP.Chemscore.Hbond>
1.0000

> <Gold.PLP.Chemscore.CHOScore>
0.0000

> <Gold.PLP.Chemscore.Metal>
0.0000

> <Gold.Chemscore.Hbonds>
donor molecule, donor type, donor heavy atom, donor atom, acceptor molecule, acceptor atom, score
      P1  H  5545  5550       L1    17  0.90

> <Gold.PLP.Chemscore.Internal.Correction>
   9.000000E+99

