#       Name:                CT1002167954
#       Creating user name   hitesit
#       Creation time:       Sun Apr 16 22:52:06 2023


#       File generated by GOLD software.
#

@<TRIPOS>MOLECULE
CT1002167954|ligand_prepared|mol2|1|dock6
    29    30     1
SMALL
NO_CHARGES


@<TRIPOS>ATOM
      1 C1         112.1031 242.4150 325.7118 C.3            1 RES1               0.0000
      2 C2         111.8248 243.7418 324.9764 C.ar           1 RES1               0.0000
      3 C3         110.7402 241.8027 326.0215 C.2            1 RES1               0.0000
      4 C4         112.9619 241.5776 324.7706 C.2            1 RES1               0.0000
      5 C5         112.8775 242.5870 327.0393 C.3            1 RES1               0.0000
      6 C6         110.5655 244.0079 324.4470 C.ar           1 RES1               0.0000
      7 C7         112.8146 244.7087 324.8220 C.ar           1 RES1               0.0000
      8 N8         110.3479 240.7268 325.2810 N.am           1 RES1               0.0000
      9 O9         110.0041 242.2810 326.8757 O.2            1 RES1               0.0000
     10 N10        112.4242 240.4215 324.2684 N.am           1 RES1               0.0000
     11 O11        114.0933 241.9169 324.4462 O.2            1 RES1               0.0000
     12 C12        112.9699 241.3132 327.8647 C.3            1 RES1               0.0000
     13 C13        110.3044 245.1988 323.7897 C.ar           1 RES1               0.0000
     14 C14        112.5514 245.8989 324.1642 C.ar           1 RES1               0.0000
     15 C15        111.1450 239.9740 324.4566 C.2            1 RES1               0.0000
     16 C16        111.2968 246.1451 323.6482 C.ar           1 RES1               0.0000
     17 O17        110.7175 238.9523 323.9270 O.2            1 RES1               0.0000
     18 H18        113.8927 242.9356 326.8132 H              1 RES1               0.0000
     19 H19        112.3829 243.3611 327.6389 H              1 RES1               0.0000
     20 H20        109.7727 243.2740 324.5465 H              1 RES1               0.0000
     21 H21        113.8093 244.5362 325.2189 H              1 RES1               0.0000
     22 H22        109.3715 240.4571 325.3462 H              1 RES1               0.0000
     23 H23        113.0341 239.8408 323.7018 H              1 RES1               0.0000
     24 H24        113.5227 241.4892 328.7850 H              1 RES1               0.0000
     25 H25        111.9782 240.9520 328.1289 H              1 RES1               0.0000
     26 H26        113.4791 240.5291 327.3081 H              1 RES1               0.0000
     27 H27        109.3157 245.3871 323.3843 H              1 RES1               0.0000
     28 H28        113.3357 246.6406 324.0546 H              1 RES1               0.0000
     29 H29        111.0919 247.0781 323.1336 H              1 RES1               0.0000
@<TRIPOS>BOND
    1    1    2 1     
    2    1    3 1     
    3    1    4 1     
    4    1    5 1     
    5    2    6 ar    
    6    2    7 ar    
    7    3    8 1     
    8    3    9 2     
    9    4   10 1     
   10    4   11 2     
   11    5   12 1     
   12    5   18 1     
   13    5   19 1     
   14    6   13 ar    
   15    6   20 1     
   16    7   14 ar    
   17    7   21 1     
   18    8   15 1     
   19    8   22 1     
   20   10   15 1     
   21   10   23 1     
   22   12   24 1     
   23   12   25 1     
   24   12   26 1     
   25   13   16 ar    
   26   13   27 1     
   27   14   16 ar    
   28   14   28 1     
   29   15   17 2     
   30   16   29 1     
@<TRIPOS>SUBSTRUCTURE
      1 RES1           1
@<TRIPOS>SET
DONOR_HYDROGENS      STATIC     ATOMS    <user>   **** ""
2 22 23
ATOM$RED        STATIC     ATOMS    COLORGROUP SYSTEM
2 22 23
@<TRIPOS>COMMENT
> <Gold.Version>
2022.3.0

> <Gold.Id.Protein>
unknown|4uch_clean|pdb

> <Gold.Protein.RotatedTorsions>
[ 1282 1268 1269 1270 ] final   -8.64 input   42.93 | X-H torsion
[ 12864 12852 12853 12854 ] final   83.95 input  102.46 | X-H torsion
[ 12872 12863 12862 12860 ] final  122.89 input   59.97 | X-H torsion
[ 12900 12891 12892 12893 ] final   59.82 input   33.49 | X-H torsion
[ 12960 12952 12953 12954 ] final   57.56 input  127.22 | X-H torsion
[ 13446 13426 13425 13421 ] final  173.43 input   59.98 | X-H torsion
[ 1244 1232 1233 1234 ] final   45.18 input  119.89 | X-H torsion
[ 5550 5545 5544 5541 ] final  132.04 input   60.01 | X-H torsion
[ 3548 3542 3543 3544 ] final  -47.08 input   78.91 | X-H torsion
[ 3570 3563 3564 3565 ] final  -78.06 input  104.01 | X-H torsion
[ 3596 3592 3593 3594 ] final   88.59 input   81.17 | X-H torsion
[ 8428 8423 8424 8425 ] final  -49.22 input   41.93 | X-H torsion
[ 8452 8445 8446 8447 ] final   74.77 input   98.48 | X-H torsion
[ 8978 8972 8973 8974 ] final  -94.26 input   32.89 | X-H torsion
[ 8996 8992 8993 8994 ] final   65.67 input   45.98 | X-H torsion
[ 9030 9016 9017 9018 ] final   21.57 input   38.77 | X-H torsion
[ 9074 9062 9063 9064 ] final -151.85 input   99.93 | X-H torsion
[ 9108 9100 9101 9102 ] final  113.14 input   97.82 | X-H torsion
[ 8482 8476 8477 8478 ] final -178.46 input   55.16 | X-H torsion
[ 9082 9073 9072 9070 ] final  130.72 input   60.02 | X-H torsion
[ 8948 8937 8938 8939 ] final   39.30 input   49.52 | X-H torsion
[ 8982 8977 8976 8973 ] final -158.33 input   60.00 | X-H torsion
[ 4890 4885 4884 4881 ] final   23.21 input   59.99 | X-H torsion
[ 5574 5565 5566 5567 ] final -119.98 input   50.85 | X-H torsion
[ 5606 5598 5599 5600 ] final   45.94 input  117.92 | X-H torsion
[ 8328 8319 8318 8316 ] final -164.03 input   59.98 | X-H torsion
[ 5644 5636 5637 5638 ] final   77.85 input   69.86 | X-H torsion
[ 13451 13428 13427 13425 ] final   81.94 input   60.01 | X-H torsion
[ 8508 8500 8501 8502 ] final   -7.21 input   75.08 | X-H torsion
[ 4906 4901 4902 4903 ] final -101.68 input   29.84 | X-H torsion
[ 13460 1235 1234 1233 ] final  162.32 input    0.00 | X-H torsion
[ 13464 8503 8502 8501 ] final   91.96 input    0.00 | X-H torsion
[ 13466 12822 12821 12820 ] final  -89.50 input   -0.00 | X-H torsion
[ 13469 12855 12854 12853 ] final  101.97 input   -0.00 | X-H torsion
[ 13474 12894 12893 12892 ] final  -34.36 input    0.00 | X-H torsion
[ 13493 5543 5542 5541 ] final  179.28 input    0.00 | X-H torsion
[ 13497 3502 3501 3500 ] final   69.58 input   -0.00 | X-H torsion
[ 13500 3545 3544 3543 ] final -178.09 input    0.00 | X-H torsion
[ 13505 8400 8399 8398 ] final   19.21 input   -0.00 | X-H torsion
[ 13509 8448 8447 8446 ] final   46.92 input    0.00 | X-H torsion
[ 13511 8940 8939 8938 ] final -140.19 input    0.00 | X-H torsion
[ 13514 8975 8974 8973 ] final   40.99 input   -0.00 | X-H torsion
[ 13517 8995 8994 8993 ] final   93.20 input    0.00 | X-H torsion
[ 13520 9019 9018 9017 ] final -129.21 input   -0.00 | X-H torsion
[ 13528 8426 8425 8424 ] final  178.67 input    0.00 | X-H torsion
[ 13530 8363 8362 8361 ] final  -38.21 input    0.00 | X-H torsion
[ 13542 5639 5638 5637 ] final  151.49 input    0.00 | X-H torsion
[ 13548 9180 9179 9178 ] final   42.24 input   -0.00 | X-H torsion

> <Gold.Protein.ActiveResidues>
 TRP311  MET341  HIS342  TRP414  ALA417  ARG419  CYS420  VAL421  GLY422  ARG423 
 SER462  ALA463  SER482  GLN483  LEU484  ILE485  ARG486  TRP566  TYR567  LEU569 
 PRO570  ALA571  VAL572  SER573  ASN574  MET575  PHE589  SER590  GLY591  TRP592 
 TYR593  MET594  GLU597  ILE598  ARG601  ASP602  ARG608  TRP683  PHE696  GLU710 
 TYR711  GLN712  PRO713  ASP714  HEM750  H4B760 

> <Gold.Protein.RotatedAtoms>
  106.1776  254.0289  334.9331 H   0  0  0  0  0  0  0  0  0  0  0  0  # atno 1244 bound_to 1232
  106.1734  255.0533  333.4352 H   0  0  0  0  0  0  0  0  0  0  0  0  # atno 1282 bound_to 1268
  119.3436  251.4612  329.2846 H   0  0  0  0  0  0  0  0  0  0  0  0  # atno 3548 bound_to 3542
  121.5133  249.9293  328.2039 H   0  0  0  0  0  0  0  0  0  0  0  0  # atno 3570 bound_to 3563
  122.6791  248.4620  326.5297 H   0  0  0  0  0  0  0  0  0  0  0  0  # atno 3596 bound_to 3592
  125.0026  245.8084  317.4262 H   0  0  0  0  0  0  0  0  0  0  0  0  # atno 4890 bound_to 4885
  122.8754  247.9243  314.6753 H   0  0  0  0  0  0  0  0  0  0  0  0  # atno 4906 bound_to 4901
  106.6866  244.1381  321.4455 H   0  0  0  0  0  0  0  0  0  0  0  0  # atno 5550 bound_to 5545
  108.1697  245.2096  318.3807 H   0  0  0  0  0  0  0  0  0  0  0  0  # atno 5574 bound_to 5565
  111.0903  242.7455  316.2433 H   0  0  0  0  0  0  0  0  0  0  0  0  # atno 5606 bound_to 5598
  111.7818  240.9641  315.5493 H   0  0  0  0  0  0  0  0  0  0  0  0  # atno 5644 bound_to 5636
  111.8149  239.5312  320.7254 H   0  0  0  0  0  0  0  0  0  0  0  0  # atno 8328 bound_to 8319
  115.0011  243.2021  319.1124 H   0  0  0  0  0  0  0  0  0  0  0  0  # atno 8428 bound_to 8423
  114.7871  246.6384  318.1831 H   0  0  0  0  0  0  0  0  0  0  0  0  # atno 8452 bound_to 8445
  111.7306  247.1375  317.3685 H   0  0  0  0  0  0  0  0  0  0  0  0  # atno 8482 bound_to 8476
  109.8219  249.9971  317.9014 H   0  0  0  0  0  0  0  0  0  0  0  0  # atno 8508 bound_to 8500
  114.5957  248.8239  316.0704 H   0  0  0  0  0  0  0  0  0  0  0  0  # atno 8948 bound_to 8937
  117.7248  247.8588  316.8450 H   0  0  0  0  0  0  0  0  0  0  0  0  # atno 8978 bound_to 8972
  118.7533  244.4730  313.7605 H   0  0  0  0  0  0  0  0  0  0  0  0  # atno 8982 bound_to 8977
  119.3167  244.6868  318.7694 H   0  0  0  0  0  0  0  0  0  0  0  0  # atno 8996 bound_to 8992
  122.0933  243.5480  320.8209 H   0  0  0  0  0  0  0  0  0  0  0  0  # atno 9030 bound_to 9016
  120.7918  240.4674  321.4346 H   0  0  0  0  0  0  0  0  0  0  0  0  # atno 9074 bound_to 9062
  114.2755  239.1789  321.3337 H   0  0  0  0  0  0  0  0  0  0  0  0  # atno 9082 bound_to 9073
  120.7550  241.2351  325.5657 H   0  0  0  0  0  0  0  0  0  0  0  0  # atno 9108 bound_to 9100
  108.9647  257.1799  324.5472 H   0  0  0  0  0  0  0  0  0  0  0  0  # atno 12864 bound_to 12852
  111.5054  252.3919  328.0866 H   0  0  0  0  0  0  0  0  0  0  0  0  # atno 12872 bound_to 12863
  106.1933  254.7293  321.8405 H   0  0  0  0  0  0  0  0  0  0  0  0  # atno 12900 bound_to 12891
   99.9778  253.0361  321.3181 H   0  0  0  0  0  0  0  0  0  0  0  0  # atno 12960 bound_to 12952
  107.8691  246.5712  336.8927 H   0  0  0  0  0  0  0  0  0  0  0  0  # atno 13446 bound_to 13426
  108.7430  250.5914  336.1700 H   0  0  0  0  0  0  0  0  0  0  0  0  # atno 13451 bound_to 13428
  108.1859  254.7254  330.7987 LP  0  0  0  0  0  0  0  0  0  0  0  0  # atno 13460 bound_to 1235
  109.1452  253.6888  331.8013 LP  0  0  0  0  0  0  0  0  0  0  0  0  # atno 13461 bound_to 1235
  106.5233  254.0350  332.0533 LP  0  0  0  0  0  0  0  0  0  0  0  0  # atno 13462 bound_to 1268
  106.8859  252.4870  320.1592 LP  0  0  0  0  0  0  0  0  0  0  0  0  # atno 13464 bound_to 8503
  106.6571  253.0894  318.5515 LP  0  0  0  0  0  0  0  0  0  0  0  0  # atno 13465 bound_to 8503
  109.2837  256.4614  320.9433 LP  0  0  0  0  0  0  0  0  0  0  0  0  # atno 13466 bound_to 12822
  110.3674  255.2992  321.6325 LP  0  0  0  0  0  0  0  0  0  0  0  0  # atno 13467 bound_to 12822
  109.7551  256.5052  323.1454 LP  0  0  0  0  0  0  0  0  0  0  0  0  # atno 13468 bound_to 12852
  107.0238  258.1343  321.9387 LP  0  0  0  0  0  0  0  0  0  0  0  0  # atno 13469 bound_to 12855
  106.3115  258.1208  323.5175 LP  0  0  0  0  0  0  0  0  0  0  0  0  # atno 13470 bound_to 12855
  110.7683  251.0546  327.5242 LP  0  0  0  0  0  0  0  0  0  0  0  0  # atno 13471 bound_to 12863
  110.2119  251.7921  328.8708 LP  0  0  0  0  0  0  0  0  0  0  0  0  # atno 13472 bound_to 12863
  106.2731  256.1264  322.8868 LP  0  0  0  0  0  0  0  0  0  0  0  0  # atno 13473 bound_to 12891
  104.4597  253.6325  321.7481 LP  0  0  0  0  0  0  0  0  0  0  0  0  # atno 13474 bound_to 12894
  102.9029  253.7342  322.5005 LP  0  0  0  0  0  0  0  0  0  0  0  0  # atno 13475 bound_to 12894
  101.6800  252.8246  320.9800 LP  0  0  0  0  0  0  0  0  0  0  0  0  # atno 13476 bound_to 12952
  109.4522  246.2207  337.0279 LP  0  0  0  0  0  0  0  0  0  0  0  0  # atno 13490 bound_to 13426
  108.6514  245.8751  335.6474 LP  0  0  0  0  0  0  0  0  0  0  0  0  # atno 13491 bound_to 13426
  107.4818  253.0847  335.6197 LP  0  0  0  0  0  0  0  0  0  0  0  0  # atno 13492 bound_to 1232
  110.0181  245.8917  318.7873 LP  0  0  0  0  0  0  0  0  0  0  0  0  # atno 13493 bound_to 5543
  108.8955  247.1329  319.2336 LP  0  0  0  0  0  0  0  0  0  0  0  0  # atno 13494 bound_to 5543
  106.7782  243.7662  319.8636 LP  0  0  0  0  0  0  0  0  0  0  0  0  # atno 13495 bound_to 5545
  105.3227  243.8828  320.5947 LP  0  0  0  0  0  0  0  0  0  0  0  0  # atno 13496 bound_to 5545
  117.3093  249.5973  329.2203 LP  0  0  0  0  0  0  0  0  0  0  0  0  # atno 13497 bound_to 3502
  118.8567  249.4667  329.9876 LP  0  0  0  0  0  0  0  0  0  0  0  0  # atno 13498 bound_to 3502
  118.8710  252.2493  327.8005 LP  0  0  0  0  0  0  0  0  0  0  0  0  # atno 13499 bound_to 3542
  123.1842  250.8701  328.3634 LP  0  0  0  0  0  0  0  0  0  0  0  0  # atno 13500 bound_to 3545
  122.0431  251.9806  327.6816 LP  0  0  0  0  0  0  0  0  0  0  0  0  # atno 13501 bound_to 3545
  120.8506  248.3201  328.4042 LP  0  0  0  0  0  0  0  0  0  0  0  0  # atno 13502 bound_to 3563
  123.9434  248.3837  327.7330 LP  0  0  0  0  0  0  0  0  0  0  0  0  # atno 13503 bound_to 3592
  118.1572  243.1466  318.5192 LP  0  0  0  0  0  0  0  0  0  0  0  0  # atno 13505 bound_to 8400
  117.1086  244.5028  318.2720 LP  0  0  0  0  0  0  0  0  0  0  0  0  # atno 13506 bound_to 8400
  115.2221  242.2361  317.6763 LP  0  0  0  0  0  0  0  0  0  0  0  0  # atno 13507 bound_to 8423
  113.7588  245.2250  318.1742 LP  0  0  0  0  0  0  0  0  0  0  0  0  # atno 13508 bound_to 8445
  113.8698  248.2296  316.7155 LP  0  0  0  0  0  0  0  0  0  0  0  0  # atno 13509 bound_to 8448
  112.7528  249.5428  316.8828 LP  0  0  0  0  0  0  0  0  0  0  0  0  # atno 13510 bound_to 8448
  116.2447  246.6665  317.8453 LP  0  0  0  0  0  0  0  0  0  0  0  0  # atno 13511 bound_to 8940
  115.1051  247.1273  316.6251 LP  0  0  0  0  0  0  0  0  0  0  0  0  # atno 13512 bound_to 8940
  118.3689  247.4209  315.2814 LP  0  0  0  0  0  0  0  0  0  0  0  0  # atno 13513 bound_to 8972
  120.5653  247.4619  316.4894 LP  0  0  0  0  0  0  0  0  0  0  0  0  # atno 13514 bound_to 8975
  121.6774  246.1349  316.5391 LP  0  0  0  0  0  0  0  0  0  0  0  0  # atno 13515 bound_to 8975
  119.9917  245.3450  317.2974 LP  0  0  0  0  0  0  0  0  0  0  0  0  # atno 13516 bound_to 8992
  122.2433  242.2506  317.3368 LP  0  0  0  0  0  0  0  0  0  0  0  0  # atno 13517 bound_to 8995
  120.5714  242.1279  317.7722 LP  0  0  0  0  0  0  0  0  0  0  0  0  # atno 13518 bound_to 8995
  122.0219  243.1631  319.1191 LP  0  0  0  0  0  0  0  0  0  0  0  0  # atno 13519 bound_to 9016
  121.9648  242.1731  323.5038 LP  0  0  0  0  0  0  0  0  0  0  0  0  # atno 13520 bound_to 9019
  121.0334  243.0359  322.3256 LP  0  0  0  0  0  0  0  0  0  0  0  0  # atno 13521 bound_to 9019
  122.2835  239.7647  322.0123 LP  0  0  0  0  0  0  0  0  0  0  0  0  # atno 13522 bound_to 9062
  121.3552  239.7167  324.9435 LP  0  0  0  0  0  0  0  0  0  0  0  0  # atno 13523 bound_to 9100
  111.7494  245.1917  317.6732 LP  0  0  0  0  0  0  0  0  0  0  0  0  # atno 13528 bound_to 8426
  112.4537  243.8464  316.8402 LP  0  0  0  0  0  0  0  0  0  0  0  0  # atno 13529 bound_to 8426
  115.2461  239.6855  316.2241 LP  0  0  0  0  0  0  0  0  0  0  0  0  # atno 13530 bound_to 8363
  114.8592  239.7881  317.9093 LP  0  0  0  0  0  0  0  0  0  0  0  0  # atno 13531 bound_to 8363
  110.5741  247.9579  318.3875 LP  0  0  0  0  0  0  0  0  0  0  0  0  # atno 13532 bound_to 8476
  114.0400  239.7430  322.8417 LP  0  0  0  0  0  0  0  0  0  0  0  0  # atno 13533 bound_to 9073
  113.9380  238.1413  322.5409 LP  0  0  0  0  0  0  0  0  0  0  0  0  # atno 13534 bound_to 9073
  114.9578  249.5527  314.5222 LP  0  0  0  0  0  0  0  0  0  0  0  0  # atno 13535 bound_to 8937
  119.9952  244.4651  314.8121 LP  0  0  0  0  0  0  0  0  0  0  0  0  # atno 13536 bound_to 8977
  119.2986  245.8766  314.3776 LP  0  0  0  0  0  0  0  0  0  0  0  0  # atno 13537 bound_to 8977
  124.0327  246.7219  318.3601 LP  0  0  0  0  0  0  0  0  0  0  0  0  # atno 13538 bound_to 4885
  125.5762  247.1798  318.0875 LP  0  0  0  0  0  0  0  0  0  0  0  0  # atno 13539 bound_to 4885
  107.5962  243.5614  318.2870 LP  0  0  0  0  0  0  0  0  0  0  0  0  # atno 13540 bound_to 5565
  110.0735  244.0690  315.7267 LP  0  0  0  0  0  0  0  0  0  0  0  0  # atno 13541 bound_to 5598
  110.2655  239.5232  318.5458 LP  0  0  0  0  0  0  0  0  0  0  0  0  # atno 13542 bound_to 5639
  111.7809  239.3028  317.7367 LP  0  0  0  0  0  0  0  0  0  0  0  0  # atno 13543 bound_to 5639
  111.6574  238.3632  321.8480 LP  0  0  0  0  0  0  0  0  0  0  0  0  # atno 13544 bound_to 8319
  110.4747  238.6079  320.7489 LP  0  0  0  0  0  0  0  0  0  0  0  0  # atno 13545 bound_to 8319
  113.4456  238.8913  328.2456 LP  0  0  0  0  0  0  0  0  0  0  0  0  # atno 13548 bound_to 9180
  113.5061  237.2683  328.8473 LP  0  0  0  0  0  0  0  0  0  0  0  0  # atno 13549 bound_to 9180
  110.3602  241.0162  314.5311 LP  0  0  0  0  0  0  0  0  0  0  0  0  # atno 13552 bound_to 5636

> <Gold.Score>
     Fitness  S(hb_ext) S(vdw_ext)  S(hb_int)    S(int)      intcor
     36.24       6.42      22.83       0.00      -1.58      -0.77

> <Gold.Goldscore.Fitness>
36.2362

> <Gold.Goldscore.Internal.Vdw>
-1.8565

> <Gold.Goldscore.Internal.Torsion>
-0.4898

> <Gold.Goldscore.External.Vdw>
22.8343

> <Gold.Goldscore.Internal.HBond>
0.0000

> <Gold.Goldscore.External.HBond>
6.4200

> <Gold.Goldscore.Internal.Correction>
-0.7653

> <Gold.Goldscore.Hbonds>
donor molecule, donor type, donor heavy atom, donor atom, acceptor molecule, acceptor atom, score
      P1  H  5572  5580       L1    17  0.02
      P1  H  9513  9527       L1    17  0.74
      L1  H    10    23       P1  9073  0.96

> <Gold.Goldscore.Internal.Vdw.Weighted>
-1.8565

> <Gold.Goldscore.Internal.Torsion.Weighted>
-0.4898

> <Gold.Goldscore.External.Vdw.Weighted>
31.3972

> <Gold.Goldscore.Internal.HBond.Weighted>
0.0000

> <Gold.Goldscore.External.HBond.Weighted>
6.4200

> <Gold.Goldscore.Internal.Correction.Weighted>
-0.7653

> <Gold.Rescore>
     Score     S(PLP)   S(hbond)     S(cho)   S(metal)  DE(clash)   DE(tors)     intcor
     11.50     -10.99       1.00       0.00       0.00       1.42       0.54       ----

> <Gold.PLP.Fitness>
11.5012

> <Gold.PLP.PLP>
-10.9924

> <Gold.PLP.part.hbond>
-3.2660

> <Gold.PLP.part.metal>
0.0000

> <Gold.PLP.part.buried>
3.3297

> <Gold.PLP.part.nonpolar>
-19.3213

> <Gold.PLP.part.repulsive>
8.1519

> <Gold.PLP.ligand.clash>
1.4188

> <Gold.PLP.ligand.torsion>
0.5362

> <Gold.PLP.Chemscore.Hbond>
1.0000

> <Gold.PLP.Chemscore.CHOScore>
0.0000

> <Gold.PLP.Chemscore.Metal>
0.0000

> <Gold.Chemscore.Hbonds>
donor molecule, donor type, donor heavy atom, donor atom, acceptor molecule, acceptor atom, score
      L1  H    10    23       P1  9073  0.89
      P1  H  9513  9527       L1    17  0.16

> <Gold.PLP.Chemscore.Internal.Correction>
   9.000000E+99

