#       Name:                CT1002167954
#       Creating user name   hitesit
#       Creation time:       Sun Apr 16 22:52:02 2023


#       File generated by GOLD software.
#

@<TRIPOS>MOLECULE
CT1002167954|ligand_prepared|mol2|1|dock1
    29    30     1
SMALL
NO_CHARGES


@<TRIPOS>ATOM
      1 C1         110.2924 244.8286 324.4202 C.3            1 RES1               0.0000
      2 C2         111.5907 244.0869 324.0422 C.ar           1 RES1               0.0000
      3 C3         110.7174 246.0529 325.2256 C.2            1 RES1               0.0000
      4 C4         109.5926 245.1602 323.1068 C.2            1 RES1               0.0000
      5 C5         109.3204 243.9880 325.2805 C.3            1 RES1               0.0000
      6 C6         112.1499 244.2371 322.7767 C.ar           1 RES1               0.0000
      7 C7         112.2411 243.2526 324.9475 C.ar           1 RES1               0.0000
      8 N8         110.6387 247.2696 324.6146 N.am           1 RES1               0.0000
      9 O9         111.1524 245.9482 326.3658 O.2            1 RES1               0.0000
     10 N10        109.4651 246.4804 322.7627 N.am           1 RES1               0.0000
     11 O11        109.1653 244.2894 322.3588 O.2            1 RES1               0.0000
     12 C12        107.9271 244.5863 325.3931 C.3            1 RES1               0.0000
     13 C13        113.3184 243.5795 322.4296 C.ar           1 RES1               0.0000
     14 C14        113.4094 242.5957 324.5983 C.ar           1 RES1               0.0000
     15 C15        109.9836 247.5489 323.4422 C.2            1 RES1               0.0000
     16 C16        113.9491 242.7588 323.3402 C.ar           1 RES1               0.0000
     17 O17        109.8740 248.7039 323.0407 O.2            1 RES1               0.0000
     18 H18        109.2397 242.9849 324.8438 H              1 RES1               0.0000
     19 H19        109.7416 243.8822 326.2879 H              1 RES1               0.0000
     20 H20        111.6663 244.8769 322.0460 H              1 RES1               0.0000
     21 H21        111.8341 243.1084 325.9426 H              1 RES1               0.0000
     22 H22        111.1106 248.0434 325.0717 H              1 RES1               0.0000
     23 H23        108.9343 246.6858 321.9222 H              1 RES1               0.0000
     24 H24        107.2856 243.9574 326.0069 H              1 RES1               0.0000
     25 H25        107.9671 245.5745 325.8468 H              1 RES1               0.0000
     26 H26        107.4681 244.6825 324.4113 H              1 RES1               0.0000
     27 H27        113.7383 243.7101 321.4378 H              1 RES1               0.0000
     28 H28        113.9021 241.9502 325.3180 H              1 RES1               0.0000
     29 H29        114.8647 242.2440 323.0683 H              1 RES1               0.0000
@<TRIPOS>BOND
    1    1    2 1     
    2    1    3 1     
    3    1    4 1     
    4    1    5 1     
    5    2    6 ar    
    6    2    7 ar    
    7    3    8 1     
    8    3    9 2     
    9    4   10 1     
   10    4   11 2     
   11    5   12 1     
   12    5   18 1     
   13    5   19 1     
   14    6   13 ar    
   15    6   20 1     
   16    7   14 ar    
   17    7   21 1     
   18    8   15 1     
   19    8   22 1     
   20   10   15 1     
   21   10   23 1     
   22   12   24 1     
   23   12   25 1     
   24   12   26 1     
   25   13   16 ar    
   26   13   27 1     
   27   14   16 ar    
   28   14   28 1     
   29   15   17 2     
   30   16   29 1     
@<TRIPOS>SUBSTRUCTURE
      1 RES1           1
@<TRIPOS>SET
DONOR_HYDROGENS      STATIC     ATOMS    <user>   **** ""
2 22 23
ATOM$RED        STATIC     ATOMS    COLORGROUP SYSTEM
2 22 23
@<TRIPOS>COMMENT
> <Gold.Version>
2022.3.0

> <Gold.Id.Protein>
unknown|4uch_clean|pdb

> <Gold.Protein.RotatedTorsions>
[ 1282 1268 1269 1270 ] final  -90.10 input   42.93 | X-H torsion
[ 12864 12852 12853 12854 ] final  -45.51 input  102.46 | X-H torsion
[ 12872 12863 12862 12860 ] final   45.10 input   59.97 | X-H torsion
[ 12900 12891 12892 12893 ] final  -84.58 input   33.49 | X-H torsion
[ 12960 12952 12953 12954 ] final -121.06 input  127.22 | X-H torsion
[ 13446 13426 13425 13421 ] final -125.66 input   59.98 | X-H torsion
[ 1244 1232 1233 1234 ] final   96.08 input  119.89 | X-H torsion
[ 5550 5545 5544 5541 ] final  101.71 input   60.01 | X-H torsion
[ 3548 3542 3543 3544 ] final -144.38 input   78.91 | X-H torsion
[ 3570 3563 3564 3565 ] final  142.14 input  104.01 | X-H torsion
[ 3596 3592 3593 3594 ] final -118.31 input   81.17 | X-H torsion
[ 8428 8423 8424 8425 ] final    8.74 input   41.93 | X-H torsion
[ 8452 8445 8446 8447 ] final  -37.74 input   98.48 | X-H torsion
[ 8978 8972 8973 8974 ] final  110.47 input   32.89 | X-H torsion
[ 8996 8992 8993 8994 ] final  -98.39 input   45.98 | X-H torsion
[ 9030 9016 9017 9018 ] final  171.62 input   38.77 | X-H torsion
[ 9074 9062 9063 9064 ] final -159.59 input   99.93 | X-H torsion
[ 9108 9100 9101 9102 ] final -162.97 input   97.82 | X-H torsion
[ 8482 8476 8477 8478 ] final -164.47 input   55.16 | X-H torsion
[ 9082 9073 9072 9070 ] final   47.47 input   60.02 | X-H torsion
[ 8948 8937 8938 8939 ] final  -72.84 input   49.52 | X-H torsion
[ 8982 8977 8976 8973 ] final   25.63 input   60.00 | X-H torsion
[ 4890 4885 4884 4881 ] final  -44.72 input   59.99 | X-H torsion
[ 5574 5565 5566 5567 ] final -176.55 input   50.85 | X-H torsion
[ 5606 5598 5599 5600 ] final   12.16 input  117.92 | X-H torsion
[ 8328 8319 8318 8316 ] final   94.80 input   59.98 | X-H torsion
[ 5644 5636 5637 5638 ] final    7.24 input   69.86 | X-H torsion
[ 13451 13428 13427 13425 ] final   78.54 input   60.01 | X-H torsion
[ 8508 8500 8501 8502 ] final -138.28 input   75.08 | X-H torsion
[ 4906 4901 4902 4903 ] final -157.06 input   29.84 | X-H torsion
[ 13460 1235 1234 1233 ] final -154.51 input    0.00 | X-H torsion
[ 13464 8503 8502 8501 ] final  111.08 input    0.00 | X-H torsion
[ 13466 12822 12821 12820 ] final  115.03 input   -0.00 | X-H torsion
[ 13469 12855 12854 12853 ] final   28.41 input   -0.00 | X-H torsion
[ 13474 12894 12893 12892 ] final  124.27 input    0.00 | X-H torsion
[ 13493 5543 5542 5541 ] final -131.64 input    0.00 | X-H torsion
[ 13497 3502 3501 3500 ] final -105.66 input   -0.00 | X-H torsion
[ 13500 3545 3544 3543 ] final  -57.79 input    0.00 | X-H torsion
[ 13505 8400 8399 8398 ] final   89.02 input   -0.00 | X-H torsion
[ 13509 8448 8447 8446 ] final  129.12 input    0.00 | X-H torsion
[ 13511 8940 8939 8938 ] final -178.06 input    0.00 | X-H torsion
[ 13514 8975 8974 8973 ] final   -0.88 input   -0.00 | X-H torsion
[ 13517 8995 8994 8993 ] final   32.38 input    0.00 | X-H torsion
[ 13520 9019 9018 9017 ] final  -52.29 input   -0.00 | X-H torsion
[ 13528 8426 8425 8424 ] final  132.07 input    0.00 | X-H torsion
[ 13530 8363 8362 8361 ] final   87.05 input    0.00 | X-H torsion
[ 13542 5639 5638 5637 ] final  178.83 input    0.00 | X-H torsion
[ 13548 9180 9179 9178 ] final  -20.57 input   -0.00 | X-H torsion

> <Gold.Protein.ActiveResidues>
 TRP311  MET341  HIS342  TRP414  ALA417  ARG419  CYS420  VAL421  GLY422  ARG423 
 SER462  ALA463  SER482  GLN483  LEU484  ILE485  ARG486  TRP566  TYR567  LEU569 
 PRO570  ALA571  VAL572  SER573  ASN574  MET575  PHE589  SER590  GLY591  TRP592 
 TYR593  MET594  GLU597  ILE598  ARG601  ASP602  ARG608  TRP683  PHE696  GLU710 
 TYR711  GLN712  PRO713  ASP714  HEM750  H4B760 

> <Gold.Protein.RotatedAtoms>
  105.9989  253.3097  335.1212 H   0  0  0  0  0  0  0  0  0  0  0  0  # atno 1244 bound_to 1232
  107.1887  254.7633  332.9423 H   0  0  0  0  0  0  0  0  0  0  0  0  # atno 1282 bound_to 1268
  118.3369  251.4438  328.4295 H   0  0  0  0  0  0  0  0  0  0  0  0  # atno 3548 bound_to 3542
  120.7442  248.6220  328.9157 H   0  0  0  0  0  0  0  0  0  0  0  0  # atno 3570 bound_to 3563
  123.8011  248.0028  327.7472 H   0  0  0  0  0  0  0  0  0  0  0  0  # atno 3596 bound_to 3592
  124.1002  246.0399  317.9012 H   0  0  0  0  0  0  0  0  0  0  0  0  # atno 4890 bound_to 4885
  123.0594  247.3115  314.1620 H   0  0  0  0  0  0  0  0  0  0  0  0  # atno 4906 bound_to 4901
  107.0502  244.0759  321.1229 H   0  0  0  0  0  0  0  0  0  0  0  0  # atno 5550 bound_to 5545
  108.2603  244.7191  319.0533 H   0  0  0  0  0  0  0  0  0  0  0  0  # atno 5574 bound_to 5565
  110.6044  242.5970  316.3150 H   0  0  0  0  0  0  0  0  0  0  0  0  # atno 5606 bound_to 5598
  110.8253  241.1438  315.8749 H   0  0  0  0  0  0  0  0  0  0  0  0  # atno 5644 bound_to 5636
  111.8866  238.5619  321.7977 H   0  0  0  0  0  0  0  0  0  0  0  0  # atno 8328 bound_to 8319
  114.3193  242.8522  318.7417 H   0  0  0  0  0  0  0  0  0  0  0  0  # atno 8428 bound_to 8423
  113.8459  245.8153  317.4081 H   0  0  0  0  0  0  0  0  0  0  0  0  # atno 8452 bound_to 8445
  111.8488  247.3126  317.4064 H   0  0  0  0  0  0  0  0  0  0  0  0  # atno 8482 bound_to 8476
  108.8940  249.0055  317.0508 H   0  0  0  0  0  0  0  0  0  0  0  0  # atno 8508 bound_to 8500
  114.8560  248.5888  314.6411 H   0  0  0  0  0  0  0  0  0  0  0  0  # atno 8948 bound_to 8937
  118.0116  247.3196  315.2331 H   0  0  0  0  0  0  0  0  0  0  0  0  # atno 8978 bound_to 8972
  119.9664  245.3440  314.8882 H   0  0  0  0  0  0  0  0  0  0  0  0  # atno 8982 bound_to 8977
  119.9985  245.1166  317.2136 H   0  0  0  0  0  0  0  0  0  0  0  0  # atno 8996 bound_to 8992
  122.4655  243.1925  319.1982 H   0  0  0  0  0  0  0  0  0  0  0  0  # atno 9030 bound_to 9016
  120.7645  240.3579  321.3961 H   0  0  0  0  0  0  0  0  0  0  0  0  # atno 9074 bound_to 9062
  114.1666  239.9517  322.3019 H   0  0  0  0  0  0  0  0  0  0  0  0  # atno 9082 bound_to 9073
  121.7969  240.9285  325.1032 H   0  0  0  0  0  0  0  0  0  0  0  0  # atno 9108 bound_to 9100
  109.3378  257.1059  323.0039 H   0  0  0  0  0  0  0  0  0  0  0  0  # atno 12864 bound_to 12852
  111.2840  251.4715  327.3896 H   0  0  0  0  0  0  0  0  0  0  0  0  # atno 12872 bound_to 12863
  105.9395  255.7846  323.1266 H   0  0  0  0  0  0  0  0  0  0  0  0  # atno 12900 bound_to 12891
  101.6980  252.8300  320.9549 H   0  0  0  0  0  0  0  0  0  0  0  0  # atno 12960 bound_to 12952
  107.8723  246.2198  336.0114 H   0  0  0  0  0  0  0  0  0  0  0  0  # atno 13446 bound_to 13426
  108.7617  250.5697  336.1224 H   0  0  0  0  0  0  0  0  0  0  0  0  # atno 13451 bound_to 13428
  108.5235  255.0580  331.2245 LP  0  0  0  0  0  0  0  0  0  0  0  0  # atno 13460 bound_to 1235
  108.8076  253.3562  331.3755 LP  0  0  0  0  0  0  0  0  0  0  0  0  # atno 13461 bound_to 1235
  105.5471  254.3138  332.5272 LP  0  0  0  0  0  0  0  0  0  0  0  0  # atno 13462 bound_to 1268
  107.0702  252.7080  320.1643 LP  0  0  0  0  0  0  0  0  0  0  0  0  # atno 13464 bound_to 8503
  106.4729  252.8685  318.5464 LP  0  0  0  0  0  0  0  0  0  0  0  0  # atno 13465 bound_to 8503
  110.0381  255.1593  321.7181 LP  0  0  0  0  0  0  0  0  0  0  0  0  # atno 13466 bound_to 12822
  109.6131  256.6013  320.8578 LP  0  0  0  0  0  0  0  0  0  0  0  0  # atno 13467 bound_to 12822
  109.3874  256.5781  324.6665 LP  0  0  0  0  0  0  0  0  0  0  0  0  # atno 13468 bound_to 12852
  107.5248  258.1636  322.8462 LP  0  0  0  0  0  0  0  0  0  0  0  0  # atno 13469 bound_to 12855
  105.8105  258.0915  322.6100 LP  0  0  0  0  0  0  0  0  0  0  0  0  # atno 13470 bound_to 12855
  110.0840  251.2605  328.4682 LP  0  0  0  0  0  0  0  0  0  0  0  0  # atno 13471 bound_to 12863
  111.1191  252.5132  328.6288 LP  0  0  0  0  0  0  0  0  0  0  0  0  # atno 13472 bound_to 12863
  106.5211  255.0953  321.6300 LP  0  0  0  0  0  0  0  0  0  0  0  0  # atno 13473 bound_to 12891
  103.0909  253.8408  322.7380 LP  0  0  0  0  0  0  0  0  0  0  0  0  # atno 13474 bound_to 12894
  104.2717  253.5259  321.5106 LP  0  0  0  0  0  0  0  0  0  0  0  0  # atno 13475 bound_to 12894
  100.0026  253.0256  321.3342 LP  0  0  0  0  0  0  0  0  0  0  0  0  # atno 13476 bound_to 12952
  108.6449  246.5733  337.3990 LP  0  0  0  0  0  0  0  0  0  0  0  0  # atno 13490 bound_to 13426
  109.4554  245.8765  336.1644 LP  0  0  0  0  0  0  0  0  0  0  0  0  # atno 13491 bound_to 13426
  107.6548  253.7805  335.4378 LP  0  0  0  0  0  0  0  0  0  0  0  0  # atno 13492 bound_to 1232
  109.8264  246.3286  318.2491 LP  0  0  0  0  0  0  0  0  0  0  0  0  # atno 13493 bound_to 5543
  109.0871  246.6960  319.7718 LP  0  0  0  0  0  0  0  0  0  0  0  0  # atno 13494 bound_to 5543
  106.3092  243.7141  319.7196 LP  0  0  0  0  0  0  0  0  0  0  0  0  # atno 13495 bound_to 5545
  105.4256  243.9974  321.0634 LP  0  0  0  0  0  0  0  0  0  0  0  0  # atno 13496 bound_to 5545
  118.8252  249.4891  330.0482 LP  0  0  0  0  0  0  0  0  0  0  0  0  # atno 13497 bound_to 3502
  117.3408  249.5749  329.1597 LP  0  0  0  0  0  0  0  0  0  0  0  0  # atno 13498 bound_to 3502
  119.8617  252.2664  328.6419 LP  0  0  0  0  0  0  0  0  0  0  0  0  # atno 13499 bound_to 3542
  122.5293  251.4927  327.1632 LP  0  0  0  0  0  0  0  0  0  0  0  0  # atno 13500 bound_to 3545
  122.6981  251.3580  328.8818 LP  0  0  0  0  0  0  0  0  0  0  0  0  # atno 13501 bound_to 3545
  121.5916  249.5797  327.7184 LP  0  0  0  0  0  0  0  0  0  0  0  0  # atno 13502 bound_to 3563
  122.8461  248.8327  326.5423 LP  0  0  0  0  0  0  0  0  0  0  0  0  # atno 13503 bound_to 3592
  117.8281  243.4557  317.6369 LP  0  0  0  0  0  0  0  0  0  0  0  0  # atno 13505 bound_to 8400
  117.4376  244.1938  319.1543 LP  0  0  0  0  0  0  0  0  0  0  0  0  # atno 13506 bound_to 8400
  115.8943  242.5811  318.0418 LP  0  0  0  0  0  0  0  0  0  0  0  0  # atno 13507 bound_to 8423
  114.6775  246.0284  318.9307 LP  0  0  0  0  0  0  0  0  0  0  0  0  # atno 13508 bound_to 8445
  112.9951  248.5559  316.0637 LP  0  0  0  0  0  0  0  0  0  0  0  0  # atno 13509 bound_to 8448
  113.6276  249.2164  317.5346 LP  0  0  0  0  0  0  0  0  0  0  0  0  # atno 13510 bound_to 8448
  116.2226  246.2630  317.4547 LP  0  0  0  0  0  0  0  0  0  0  0  0  # atno 13511 bound_to 8940
  115.1272  247.5308  317.0157 LP  0  0  0  0  0  0  0  0  0  0  0  0  # atno 13512 bound_to 8940
  118.0880  247.9492  316.8608 LP  0  0  0  0  0  0  0  0  0  0  0  0  # atno 13513 bound_to 8972
  120.5382  247.1309  315.9671 LP  0  0  0  0  0  0  0  0  0  0  0  0  # atno 13514 bound_to 8975
  121.7044  246.4659  317.0615 LP  0  0  0  0  0  0  0  0  0  0  0  0  # atno 13515 bound_to 8975
  119.3263  244.9255  318.8158 LP  0  0  0  0  0  0  0  0  0  0  0  0  # atno 13516 bound_to 8992
  121.6551  242.8067  317.0000 LP  0  0  0  0  0  0  0  0  0  0  0  0  # atno 13517 bound_to 8995
  121.1595  241.5719  318.1089 LP  0  0  0  0  0  0  0  0  0  0  0  0  # atno 13518 bound_to 8995
  121.6565  243.5121  320.7124 LP  0  0  0  0  0  0  0  0  0  0  0  0  # atno 13519 bound_to 9016
  122.3128  242.8350  322.7283 LP  0  0  0  0  0  0  0  0  0  0  0  0  # atno 13520 bound_to 9019
  120.6854  242.3740  323.1011 LP  0  0  0  0  0  0  0  0  0  0  0  0  # atno 13521 bound_to 9019
  122.3102  239.8718  322.0499 LP  0  0  0  0  0  0  0  0  0  0  0  0  # atno 13522 bound_to 9062
  120.3355  240.0167  325.3961 LP  0  0  0  0  0  0  0  0  0  0  0  0  # atno 13523 bound_to 9100
  111.8361  244.6413  318.0719 LP  0  0  0  0  0  0  0  0  0  0  0  0  # atno 13528 bound_to 8426
  112.3670  244.3968  316.4415 LP  0  0  0  0  0  0  0  0  0  0  0  0  # atno 13529 bound_to 8426
  114.9456  239.0606  317.5971 LP  0  0  0  0  0  0  0  0  0  0  0  0  # atno 13530 bound_to 8363
  115.1597  240.4130  316.5363 LP  0  0  0  0  0  0  0  0  0  0  0  0  # atno 13531 bound_to 8363
  110.4580  247.7858  318.3502 LP  0  0  0  0  0  0  0  0  0  0  0  0  # atno 13532 bound_to 8476
  113.8859  238.5106  323.0036 LP  0  0  0  0  0  0  0  0  0  0  0  0  # atno 13533 bound_to 9073
  114.2017  238.5952  321.4037 LP  0  0  0  0  0  0  0  0  0  0  0  0  # atno 13534 bound_to 9073
  114.7047  249.7812  315.9117 LP  0  0  0  0  0  0  0  0  0  0  0  0  # atno 13535 bound_to 8937
  118.7243  245.4644  313.8438 LP  0  0  0  0  0  0  0  0  0  0  0  0  # atno 13536 bound_to 8977
  119.3476  244.0002  314.2102 LP  0  0  0  0  0  0  0  0  0  0  0  0  # atno 13537 bound_to 8977
  124.8620  247.3631  318.4635 LP  0  0  0  0  0  0  0  0  0  0  0  0  # atno 13538 bound_to 4885
  125.6559  246.3054  317.5055 LP  0  0  0  0  0  0  0  0  0  0  0  0  # atno 13539 bound_to 4885
  107.5077  244.0411  317.6292 LP  0  0  0  0  0  0  0  0  0  0  0  0  # atno 13540 bound_to 5565
  110.5489  244.2142  315.6564 LP  0  0  0  0  0  0  0  0  0  0  0  0  # atno 13541 bound_to 5598
  110.3667  239.1364  318.6336 LP  0  0  0  0  0  0  0  0  0  0  0  0  # atno 13542 bound_to 5639
  111.6797  239.6896  317.6489 LP  0  0  0  0  0  0  0  0  0  0  0  0  # atno 13543 bound_to 5639
  110.4900  238.4013  320.9775 LP  0  0  0  0  0  0  0  0  0  0  0  0  # atno 13544 bound_to 8319
  111.5699  239.5455  320.5402 LP  0  0  0  0  0  0  0  0  0  0  0  0  # atno 13545 bound_to 8319
  113.5859  238.7190  329.1203 LP  0  0  0  0  0  0  0  0  0  0  0  0  # atno 13548 bound_to 9180
  113.3657  237.4406  327.9726 LP  0  0  0  0  0  0  0  0  0  0  0  0  # atno 13549 bound_to 9180
  111.2882  240.8418  314.2151 LP  0  0  0  0  0  0  0  0  0  0  0  0  # atno 13552 bound_to 5636

> <Gold.Score>
     Fitness  S(hb_ext) S(vdw_ext)  S(hb_int)    S(int)      intcor
     32.95       5.67      20.64       0.00      -1.10      -0.83

> <Gold.Goldscore.Fitness>
32.9527

> <Gold.Goldscore.Internal.Vdw>
-1.3022

> <Gold.Goldscore.Internal.Torsion>
-0.6230

> <Gold.Goldscore.External.Vdw>
20.6379

> <Gold.Goldscore.Internal.HBond>
0.0000

> <Gold.Goldscore.External.HBond>
5.6723

> <Gold.Goldscore.Internal.Correction>
-0.8284

> <Gold.Goldscore.Hbonds>
donor molecule, donor type, donor heavy atom, donor atom, acceptor molecule, acceptor atom, score
      P1  H  5572  5581       L1    11  0.24
      P1  H  5545  5550       L1    11  0.48
      L1  H     8    22       P1 13311  0.70

> <Gold.Goldscore.Internal.Vdw.Weighted>
-1.3022

> <Gold.Goldscore.Internal.Torsion.Weighted>
-0.6230

> <Gold.Goldscore.External.Vdw.Weighted>
28.3772

> <Gold.Goldscore.Internal.HBond.Weighted>
0.0000

> <Gold.Goldscore.External.HBond.Weighted>
5.6723

> <Gold.Goldscore.Internal.Correction.Weighted>
-0.8284

> <Gold.Rescore>
     Score     S(PLP)   S(hbond)     S(cho)   S(metal)  DE(clash)   DE(tors)     intcor
     23.45     -20.12       1.93       0.00       0.00       0.00       1.23       ----

> <Gold.PLP.Fitness>
23.4504

> <Gold.PLP.PLP>
-20.1166

> <Gold.PLP.part.hbond>
-2.3088

> <Gold.PLP.part.metal>
0.0000

> <Gold.PLP.part.buried>
-6.3586

> <Gold.PLP.part.nonpolar>
-15.0861

> <Gold.PLP.part.repulsive>
2.2304

> <Gold.PLP.ligand.clash>
0.0000

> <Gold.PLP.ligand.torsion>
1.2300

> <Gold.PLP.Chemscore.Hbond>
1.9313

> <Gold.PLP.Chemscore.CHOScore>
0.0000

> <Gold.PLP.Chemscore.Metal>
0.0000

> <Gold.Chemscore.Hbonds>
donor molecule, donor type, donor heavy atom, donor atom, acceptor molecule, acceptor atom, score
      L1  H     8    22       P1 13311  1.00
      P1  H  5572  5581       L1    11  0.41
      P1  H  5545  5550       L1    11  0.10

> <Gold.PLP.Chemscore.Internal.Correction>
   9.000000E+99

