#       Name:                CT1002167954
#       Creating user name   hitesit
#       Creation time:       Sun Apr 16 22:52:03 2023


#       File generated by GOLD software.
#

@<TRIPOS>MOLECULE
CT1002167954|ligand_prepared|mol2|1|dock2
    29    30     1
SMALL
NO_CHARGES


@<TRIPOS>ATOM
      1 C1         113.7319 244.5472 323.9500 C.3            1 RES1               0.0000
      2 C2         115.0414 245.0382 323.2998 C.ar           1 RES1               0.0000
      3 C3         112.9579 243.8172 322.8562 C.2            1 RES1               0.0000
      4 C4         114.1430 243.6594 325.1194 C.2            1 RES1               0.0000
      5 C5         112.8439 245.6859 324.5037 C.3            1 RES1               0.0000
      6 C6         115.7925 246.0479 323.8941 C.ar           1 RES1               0.0000
      7 C7         115.5117 244.4904 322.1093 C.ar           1 RES1               0.0000
      8 N8         112.9084 242.4558 322.9184 N.am           1 RES1               0.0000
      9 O9         112.4324 244.4245 321.9314 O.2            1 RES1               0.0000
     10 N10        113.8348 242.3259 325.0526 N.am           1 RES1               0.0000
     11 O11        114.7456 244.0997 326.0907 O.2            1 RES1               0.0000
     12 C12        111.4810 245.2192 324.9903 C.3            1 RES1               0.0000
     13 C13        116.9725 246.4918 323.3207 C.ar           1 RES1               0.0000
     14 C14        116.6920 244.9359 321.5375 C.ar           1 RES1               0.0000
     15 C15        113.2635 241.6783 323.9913 C.2            1 RES1               0.0000
     16 C16        117.4233 245.9359 322.1424 C.ar           1 RES1               0.0000
     17 O17        113.0674 240.4664 323.9842 O.2            1 RES1               0.0000
     18 H18        113.3692 246.1703 325.3360 H              1 RES1               0.0000
     19 H19        112.6998 246.4359 323.7162 H              1 RES1               0.0000
     20 H20        115.4523 246.4990 324.8203 H              1 RES1               0.0000
     21 H21        114.9524 243.7033 321.6151 H              1 RES1               0.0000
     22 H22        112.5768 241.9709 322.0906 H              1 RES1               0.0000
     23 H23        114.0514 241.7640 325.8697 H              1 RES1               0.0000
     24 H24        110.8987 246.0569 325.3682 H              1 RES1               0.0000
     25 H25        110.9209 244.7547 324.1813 H              1 RES1               0.0000
     26 H26        111.5863 244.4907 325.7915 H              1 RES1               0.0000
     27 H27        117.5437 247.2800 323.8001 H              1 RES1               0.0000
     28 H28        117.0426 244.4959 320.6097 H              1 RES1               0.0000
     29 H29        118.3479 246.2835 321.6937 H              1 RES1               0.0000
@<TRIPOS>BOND
    1    1    2 1     
    2    1    3 1     
    3    1    4 1     
    4    1    5 1     
    5    2    6 ar    
    6    2    7 ar    
    7    3    8 1     
    8    3    9 2     
    9    4   10 1     
   10    4   11 2     
   11    5   12 1     
   12    5   18 1     
   13    5   19 1     
   14    6   13 ar    
   15    6   20 1     
   16    7   14 ar    
   17    7   21 1     
   18    8   15 1     
   19    8   22 1     
   20   10   15 1     
   21   10   23 1     
   22   12   24 1     
   23   12   25 1     
   24   12   26 1     
   25   13   16 ar    
   26   13   27 1     
   27   14   16 ar    
   28   14   28 1     
   29   15   17 2     
   30   16   29 1     
@<TRIPOS>SUBSTRUCTURE
      1 RES1           1
@<TRIPOS>SET
DONOR_HYDROGENS      STATIC     ATOMS    <user>   **** ""
2 22 23
ATOM$RED        STATIC     ATOMS    COLORGROUP SYSTEM
2 22 23
@<TRIPOS>COMMENT
> <Gold.Version>
2022.3.0

> <Gold.Id.Protein>
unknown|4uch_clean|pdb

> <Gold.Protein.RotatedTorsions>
[ 1282 1268 1269 1270 ] final -150.20 input   42.93 | X-H torsion
[ 12864 12852 12853 12854 ] final -131.43 input  102.46 | X-H torsion
[ 12872 12863 12862 12860 ] final -154.89 input   59.97 | X-H torsion
[ 12900 12891 12892 12893 ] final  -15.98 input   33.49 | X-H torsion
[ 12960 12952 12953 12954 ] final -126.20 input  127.22 | X-H torsion
[ 13446 13426 13425 13421 ] final    9.14 input   59.98 | X-H torsion
[ 1244 1232 1233 1234 ] final  -22.87 input  119.89 | X-H torsion
[ 5550 5545 5544 5541 ] final  120.93 input   60.01 | X-H torsion
[ 3548 3542 3543 3544 ] final    5.94 input   78.91 | X-H torsion
[ 3570 3563 3564 3565 ] final  173.24 input  104.01 | X-H torsion
[ 3596 3592 3593 3594 ] final -129.51 input   81.17 | X-H torsion
[ 8428 8423 8424 8425 ] final   -1.77 input   41.93 | X-H torsion
[ 8452 8445 8446 8447 ] final -171.75 input   98.48 | X-H torsion
[ 8978 8972 8973 8974 ] final  -92.63 input   32.89 | X-H torsion
[ 8996 8992 8993 8994 ] final -129.60 input   45.98 | X-H torsion
[ 9030 9016 9017 9018 ] final   -8.90 input   38.77 | X-H torsion
[ 9074 9062 9063 9064 ] final   22.56 input   99.93 | X-H torsion
[ 9108 9100 9101 9102 ] final  142.65 input   97.82 | X-H torsion
[ 8482 8476 8477 8478 ] final   49.27 input   55.16 | X-H torsion
[ 9082 9073 9072 9070 ] final  -10.01 input   60.02 | X-H torsion
[ 8948 8937 8938 8939 ] final  -83.20 input   49.52 | X-H torsion
[ 8982 8977 8976 8973 ] final   93.60 input   60.00 | X-H torsion
[ 4890 4885 4884 4881 ] final   71.31 input   59.99 | X-H torsion
[ 5574 5565 5566 5567 ] final   81.97 input   50.85 | X-H torsion
[ 5606 5598 5599 5600 ] final  -49.69 input  117.92 | X-H torsion
[ 8328 8319 8318 8316 ] final -138.49 input   59.98 | X-H torsion
[ 5644 5636 5637 5638 ] final  117.48 input   69.86 | X-H torsion
[ 13451 13428 13427 13425 ] final  -95.06 input   60.01 | X-H torsion
[ 8508 8500 8501 8502 ] final   70.18 input   75.08 | X-H torsion
[ 4906 4901 4902 4903 ] final  -73.72 input   29.84 | X-H torsion
[ 13460 1235 1234 1233 ] final  155.28 input    0.00 | X-H torsion
[ 13464 8503 8502 8501 ] final -101.87 input    0.00 | X-H torsion
[ 13466 12822 12821 12820 ] final   85.27 input   -0.00 | X-H torsion
[ 13469 12855 12854 12853 ] final -114.24 input   -0.00 | X-H torsion
[ 13474 12894 12893 12892 ] final  -50.11 input    0.00 | X-H torsion
[ 13493 5543 5542 5541 ] final -158.13 input    0.00 | X-H torsion
[ 13497 3502 3501 3500 ] final   -8.55 input   -0.00 | X-H torsion
[ 13500 3545 3544 3543 ] final  131.76 input    0.00 | X-H torsion
[ 13505 8400 8399 8398 ] final  155.07 input   -0.00 | X-H torsion
[ 13509 8448 8447 8446 ] final -150.92 input    0.00 | X-H torsion
[ 13511 8940 8939 8938 ] final   26.18 input    0.00 | X-H torsion
[ 13514 8975 8974 8973 ] final   20.25 input   -0.00 | X-H torsion
[ 13517 8995 8994 8993 ] final   68.14 input    0.00 | X-H torsion
[ 13520 9019 9018 9017 ] final  127.13 input   -0.00 | X-H torsion
[ 13528 8426 8425 8424 ] final -111.28 input    0.00 | X-H torsion
[ 13530 8363 8362 8361 ] final  178.80 input    0.00 | X-H torsion
[ 13542 5639 5638 5637 ] final  100.16 input    0.00 | X-H torsion
[ 13548 9180 9179 9178 ] final  127.70 input   -0.00 | X-H torsion

> <Gold.Protein.ActiveResidues>
 TRP311  MET341  HIS342  TRP414  ALA417  ARG419  CYS420  VAL421  GLY422  ARG423 
 SER462  ALA463  SER482  GLN483  LEU484  ILE485  ARG486  TRP566  TYR567  LEU569 
 PRO570  ALA571  VAL572  SER573  ASN574  MET575  PHE589  SER590  GLY591  TRP592 
 TYR593  MET594  GLU597  ILE598  ARG601  ASP602  ARG608  TRP683  PHE696  GLU710 
 TYR711  GLN712  PRO713  ASP714  HEM750  H4B760 

> <Gold.Protein.RotatedAtoms>
  107.1018  254.3727  335.0706 H   0  0  0  0  0  0  0  0  0  0  0  0  # atno 1244 bound_to 1232
  107.0333  254.2391  332.2344 H   0  0  0  0  0  0  0  0  0  0  0  0  # atno 1282 bound_to 1268
  119.8413  251.9970  328.9984 H   0  0  0  0  0  0  0  0  0  0  0  0  # atno 3548 bound_to 3542
  120.7978  249.0547  329.1122 H   0  0  0  0  0  0  0  0  0  0  0  0  # atno 3570 bound_to 3563
  123.7013  247.8675  327.7087 H   0  0  0  0  0  0  0  0  0  0  0  0  # atno 3596 bound_to 3592
  125.6172  246.2565  317.4857 H   0  0  0  0  0  0  0  0  0  0  0  0  # atno 4890 bound_to 4885
  122.5484  248.0479  314.9195 H   0  0  0  0  0  0  0  0  0  0  0  0  # atno 4906 bound_to 4901
  106.8395  244.1213  321.3495 H   0  0  0  0  0  0  0  0  0  0  0  0  # atno 5550 bound_to 5545
  107.7119  243.5506  318.5993 H   0  0  0  0  0  0  0  0  0  0  0  0  # atno 5574 bound_to 5565
  109.8114  243.0117  316.1625 H   0  0  0  0  0  0  0  0  0  0  0  0  # atno 5606 bound_to 5598
  111.9361  240.8551  314.9777 H   0  0  0  0  0  0  0  0  0  0  0  0  # atno 5644 bound_to 5636
  111.4738  239.5237  320.4908 H   0  0  0  0  0  0  0  0  0  0  0  0  # atno 8328 bound_to 8319
  114.3991  242.9393  318.8509 H   0  0  0  0  0  0  0  0  0  0  0  0  # atno 8428 bound_to 8423
  114.2728  245.4782  318.9431 H   0  0  0  0  0  0  0  0  0  0  0  0  # atno 8452 bound_to 8445
  110.3422  247.3296  318.1620 H   0  0  0  0  0  0  0  0  0  0  0  0  # atno 8482 bound_to 8476
  109.5235  249.2207  318.6222 H   0  0  0  0  0  0  0  0  0  0  0  0  # atno 8508 bound_to 8500
  114.8867  248.7146  314.5467 H   0  0  0  0  0  0  0  0  0  0  0  0  # atno 8948 bound_to 8937
  117.7477  247.8667  316.8518 H   0  0  0  0  0  0  0  0  0  0  0  0  # atno 8978 bound_to 8972
  119.9105  244.3115  314.7256 H   0  0  0  0  0  0  0  0  0  0  0  0  # atno 8982 bound_to 8977
  119.9883  245.5540  317.4012 H   0  0  0  0  0  0  0  0  0  0  0  0  # atno 8996 bound_to 8992
  121.6419  243.5170  320.7220 H   0  0  0  0  0  0  0  0  0  0  0  0  # atno 9030 bound_to 9016
  122.3196  239.8347  322.0504 H   0  0  0  0  0  0  0  0  0  0  0  0  # atno 9074 bound_to 9062
  113.9768  239.4806  323.0451 H   0  0  0  0  0  0  0  0  0  0  0  0  # atno 9082 bound_to 9073
  121.1761  241.3234  325.4347 H   0  0  0  0  0  0  0  0  0  0  0  0  # atno 9108 bound_to 9100
  109.9058  256.2093  323.5591 H   0  0  0  0  0  0  0  0  0  0  0  0  # atno 12864 bound_to 12852
  110.6047  252.2546  328.9144 H   0  0  0  0  0  0  0  0  0  0  0  0  # atno 12872 bound_to 12863
  105.6840  254.8838  322.7869 H   0  0  0  0  0  0  0  0  0  0  0  0  # atno 12900 bound_to 12891
  101.7021  252.7792  321.0157 H   0  0  0  0  0  0  0  0  0  0  0  0  # atno 12960 bound_to 12952
  109.5375  245.9441  336.3817 H   0  0  0  0  0  0  0  0  0  0  0  0  # atno 13446 bound_to 13426
  110.4211  250.1891  336.8928 H   0  0  0  0  0  0  0  0  0  0  0  0  # atno 13451 bound_to 13428
  108.1523  254.6367  330.7504 LP  0  0  0  0  0  0  0  0  0  0  0  0  # atno 13460 bound_to 1235
  109.1789  253.7776  331.8495 LP  0  0  0  0  0  0  0  0  0  0  0  0  # atno 13461 bound_to 1235
  105.6966  254.8178  333.2078 LP  0  0  0  0  0  0  0  0  0  0  0  0  # atno 13462 bound_to 1268
  106.7995  253.2298  318.6109 LP  0  0  0  0  0  0  0  0  0  0  0  0  # atno 13464 bound_to 8503
  106.7435  252.3467  320.0998 LP  0  0  0  0  0  0  0  0  0  0  0  0  # atno 13465 bound_to 8503
  110.4267  255.3438  321.6055 LP  0  0  0  0  0  0  0  0  0  0  0  0  # atno 13466 bound_to 12822
  109.2245  256.4168  320.9704 LP  0  0  0  0  0  0  0  0  0  0  0  0  # atno 13467 bound_to 12822
  108.8276  257.4617  324.1193 LP  0  0  0  0  0  0  0  0  0  0  0  0  # atno 13468 bound_to 12852
  105.9144  258.1011  323.1546 LP  0  0  0  0  0  0  0  0  0  0  0  0  # atno 13469 bound_to 12855
  107.4209  258.1541  322.3016 LP  0  0  0  0  0  0  0  0  0  0  0  0  # atno 13470 bound_to 12855
  111.5657  251.9985  327.6265 LP  0  0  0  0  0  0  0  0  0  0  0  0  # atno 13471 bound_to 12863
  110.3217  250.9865  327.9347 LP  0  0  0  0  0  0  0  0  0  0  0  0  # atno 13472 bound_to 12863
  106.7708  255.9755  321.9620 LP  0  0  0  0  0  0  0  0  0  0  0  0  # atno 13473 bound_to 12891
  104.3302  253.5524  321.5660 LP  0  0  0  0  0  0  0  0  0  0  0  0  # atno 13474 bound_to 12894
  103.0323  253.8143  322.6826 LP  0  0  0  0  0  0  0  0  0  0  0  0  # atno 13475 bound_to 12894
   99.9986  253.0751  321.2749 LP  0  0  0  0  0  0  0  0  0  0  0  0  # atno 13476 bound_to 12952
  108.0117  246.1156  335.8433 LP  0  0  0  0  0  0  0  0  0  0  0  0  # atno 13490 bound_to 13426
  108.4108  246.6121  337.3469 LP  0  0  0  0  0  0  0  0  0  0  0  0  # atno 13491 bound_to 13426
  106.5878  252.7521  335.4867 LP  0  0  0  0  0  0  0  0  0  0  0  0  # atno 13492 bound_to 1232
  109.9760  246.0526  318.4918 LP  0  0  0  0  0  0  0  0  0  0  0  0  # atno 13493 bound_to 5543
  108.9375  246.9720  319.5292 LP  0  0  0  0  0  0  0  0  0  0  0  0  # atno 13494 bound_to 5543
  106.6165  243.7408  319.7828 LP  0  0  0  0  0  0  0  0  0  0  0  0  # atno 13495 bound_to 5545
  105.3305  243.9250  320.7721 LP  0  0  0  0  0  0  0  0  0  0  0  0  # atno 13496 bound_to 5545
  117.5837  249.8075  330.2557 LP  0  0  0  0  0  0  0  0  0  0  0  0  # atno 13497 bound_to 3502
  118.5823  249.2565  328.9522 LP  0  0  0  0  0  0  0  0  0  0  0  0  # atno 13498 bound_to 3502
  118.3812  251.7220  328.0821 LP  0  0  0  0  0  0  0  0  0  0  0  0  # atno 13499 bound_to 3542
  122.7983  251.2588  328.8520 LP  0  0  0  0  0  0  0  0  0  0  0  0  # atno 13500 bound_to 3545
  122.4290  251.5919  327.1929 LP  0  0  0  0  0  0  0  0  0  0  0  0  # atno 13501 bound_to 3545
  121.5400  249.1628  327.5291 LP  0  0  0  0  0  0  0  0  0  0  0  0  # atno 13502 bound_to 3563
  122.9437  248.9650  326.5799 LP  0  0  0  0  0  0  0  0  0  0  0  0  # atno 13503 bound_to 3592
  117.2672  244.2112  317.7123 LP  0  0  0  0  0  0  0  0  0  0  0  0  # atno 13505 bound_to 8400
  117.9986  243.4382  319.0789 LP  0  0  0  0  0  0  0  0  0  0  0  0  # atno 13506 bound_to 8400
  115.8156  242.4952  317.9341 LP  0  0  0  0  0  0  0  0  0  0  0  0  # atno 13507 bound_to 8423
  114.2608  246.3574  317.4324 LP  0  0  0  0  0  0  0  0  0  0  0  0  # atno 13508 bound_to 8445
  112.6585  249.4366  316.6549 LP  0  0  0  0  0  0  0  0  0  0  0  0  # atno 13509 bound_to 8448
  113.9642  248.3357  316.9434 LP  0  0  0  0  0  0  0  0  0  0  0  0  # atno 13510 bound_to 8448
  115.0836  247.2944  316.7430 LP  0  0  0  0  0  0  0  0  0  0  0  0  # atno 13511 bound_to 8940
  116.2663  246.4994  317.7274 LP  0  0  0  0  0  0  0  0  0  0  0  0  # atno 13512 bound_to 8940
  118.3465  247.4132  315.2747 LP  0  0  0  0  0  0  0  0  0  0  0  0  # atno 13513 bound_to 8972
  120.5116  247.3332  316.2105 LP  0  0  0  0  0  0  0  0  0  0  0  0  # atno 13514 bound_to 8975
  121.7310  246.2636  316.8181 LP  0  0  0  0  0  0  0  0  0  0  0  0  # atno 13515 bound_to 8975
  119.3364  244.4986  318.6327 LP  0  0  0  0  0  0  0  0  0  0  0  0  # atno 13516 bound_to 8992
  122.0871  242.5298  317.1398 LP  0  0  0  0  0  0  0  0  0  0  0  0  # atno 13517 bound_to 8995
  120.7276  241.8487  317.9692 LP  0  0  0  0  0  0  0  0  0  0  0  0  # atno 13518 bound_to 8995
  122.4651  243.1936  319.2163 LP  0  0  0  0  0  0  0  0  0  0  0  0  # atno 13519 bound_to 9016
  120.6825  242.3790  323.0945 LP  0  0  0  0  0  0  0  0  0  0  0  0  # atno 13520 bound_to 9019
  122.3157  242.8299  322.7349 LP  0  0  0  0  0  0  0  0  0  0  0  0  # atno 13521 bound_to 9019
  120.7894  240.3835  321.4101 LP  0  0  0  0  0  0  0  0  0  0  0  0  # atno 13522 bound_to 9062
  120.9430  239.6302  325.0717 LP  0  0  0  0  0  0  0  0  0  0  0  0  # atno 13523 bound_to 9100
  112.0118  245.1883  316.7144 LP  0  0  0  0  0  0  0  0  0  0  0  0  # atno 13528 bound_to 8426
  112.1913  243.8498  317.7989 LP  0  0  0  0  0  0  0  0  0  0  0  0  # atno 13529 bound_to 8426
  114.8947  240.2981  317.7071 LP  0  0  0  0  0  0  0  0  0  0  0  0  # atno 13530 bound_to 8363
  115.2106  239.1756  316.4263 LP  0  0  0  0  0  0  0  0  0  0  0  0  # atno 13531 bound_to 8363
  111.9385  247.7691  317.6077 LP  0  0  0  0  0  0  0  0  0  0  0  0  # atno 13532 bound_to 8476
  113.9954  238.0832  322.2116 LP  0  0  0  0  0  0  0  0  0  0  0  0  # atno 13533 bound_to 9073
  114.2834  239.4972  321.4471 LP  0  0  0  0  0  0  0  0  0  0  0  0  # atno 13534 bound_to 9073
  114.6749  249.6589  316.0035 LP  0  0  0  0  0  0  0  0  0  0  0  0  # atno 13535 bound_to 8937
  119.4482  245.8558  314.5024 LP  0  0  0  0  0  0  0  0  0  0  0  0  # atno 13536 bound_to 8977
  118.6801  244.6487  313.7153 LP  0  0  0  0  0  0  0  0  0  0  0  0  # atno 13537 bound_to 8977
  124.0654  246.0783  317.9412 LP  0  0  0  0  0  0  0  0  0  0  0  0  # atno 13538 bound_to 4885
  124.9244  247.3720  318.4464 LP  0  0  0  0  0  0  0  0  0  0  0  0  # atno 13539 bound_to 4885
  108.0439  245.1837  318.0732 LP  0  0  0  0  0  0  0  0  0  0  0  0  # atno 13540 bound_to 5565
  111.3246  243.8086  315.8057 LP  0  0  0  0  0  0  0  0  0  0  0  0  # atno 13541 bound_to 5598
  110.5217  240.1185  318.1679 LP  0  0  0  0  0  0  0  0  0  0  0  0  # atno 13542 bound_to 5639
  111.5247  238.7075  318.1146 LP  0  0  0  0  0  0  0  0  0  0  0  0  # atno 13543 bound_to 5639
  111.9582  238.6408  321.7695 LP  0  0  0  0  0  0  0  0  0  0  0  0  # atno 13544 bound_to 8319
  110.5172  238.3379  321.0636 LP  0  0  0  0  0  0  0  0  0  0  0  0  # atno 13545 bound_to 8319
  113.3346  237.8433  327.7254 LP  0  0  0  0  0  0  0  0  0  0  0  0  # atno 13548 bound_to 9180
  113.6171  238.3163  329.3675 LP  0  0  0  0  0  0  0  0  0  0  0  0  # atno 13549 bound_to 9180
  110.2105  241.1220  315.0856 LP  0  0  0  0  0  0  0  0  0  0  0  0  # atno 13552 bound_to 5636

> <Gold.Score>
     Fitness  S(hb_ext) S(vdw_ext)  S(hb_int)    S(int)      intcor
     33.38       6.53      20.36       0.00      -1.14      -0.78

> <Gold.Goldscore.Fitness>
33.3849

> <Gold.Goldscore.Internal.Vdw>
-1.4609

> <Gold.Goldscore.Internal.Torsion>
-0.4507

> <Gold.Goldscore.External.Vdw>
20.3588

> <Gold.Goldscore.Internal.HBond>
0.0000

> <Gold.Goldscore.External.HBond>
6.5278

> <Gold.Goldscore.Internal.Correction>
-0.7752

> <Gold.Goldscore.Hbonds>
donor molecule, donor type, donor heavy atom, donor atom, acceptor molecule, acceptor atom, score
      P1  H  9073  9082       L1    17  0.32
      L1  H     8    22       P1  5573  0.98

> <Gold.Goldscore.Internal.Vdw.Weighted>
-1.4609

> <Gold.Goldscore.Internal.Torsion.Weighted>
-0.4507

> <Gold.Goldscore.External.Vdw.Weighted>
27.9933

> <Gold.Goldscore.Internal.HBond.Weighted>
0.0000

> <Gold.Goldscore.External.HBond.Weighted>
6.5278

> <Gold.Goldscore.Internal.Correction.Weighted>
-0.7752

> <Gold.Rescore>
     Score     S(PLP)   S(hbond)     S(cho)   S(metal)  DE(clash)   DE(tors)     intcor
     18.30     -15.93       1.40       0.00       0.00       0.00       0.92       ----

> <Gold.PLP.Fitness>
18.3017

> <Gold.PLP.PLP>
-15.9330

> <Gold.PLP.part.hbond>
-3.0000

> <Gold.PLP.part.metal>
0.0000

> <Gold.PLP.part.buried>
18.1438

> <Gold.PLP.part.nonpolar>
-38.7266

> <Gold.PLP.part.repulsive>
6.7538

> <Gold.PLP.ligand.clash>
0.0000

> <Gold.PLP.ligand.torsion>
0.9156

> <Gold.PLP.Chemscore.Hbond>
1.4000

> <Gold.PLP.Chemscore.CHOScore>
0.0000

> <Gold.PLP.Chemscore.Metal>
0.0000

> <Gold.Chemscore.Hbonds>
donor molecule, donor type, donor heavy atom, donor atom, acceptor molecule, acceptor atom, score
      L1  H     8    22       P1  5573  0.10
      P1  H  9073  9082       L1    17  1.00

> <Gold.PLP.Chemscore.Internal.Correction>
   9.000000E+99

