#       Name:                CT1002167954
#       Creating user name   hitesit
#       Creation time:       Sun Apr 16 22:52:08 2023


#       File generated by GOLD software.
#

@<TRIPOS>MOLECULE
CT1002167954|ligand_prepared|mol2|1|dock8
    29    30     1
SMALL
NO_CHARGES


@<TRIPOS>ATOM
      1 C1         113.8859 243.9452 324.2528 C.3            1 RES1               0.0000
      2 C2         115.3218 244.2949 323.8116 C.ar           1 RES1               0.0000
      3 C3         113.1618 243.4524 323.0033 C.2            1 RES1               0.0000
      4 C4         114.0205 242.8942 325.3491 C.2            1 RES1               0.0000
      5 C5         113.1014 245.1444 324.8343 C.3            1 RES1               0.0000
      6 C6         115.7421 245.6203 323.7530 C.ar           1 RES1               0.0000
      7 C7         116.2366 243.3048 323.4632 C.ar           1 RES1               0.0000
      8 N8         112.9174 242.1146 322.9011 N.am           1 RES1               0.0000
      9 O9         112.8454 244.2205 322.1033 O.2            1 RES1               0.0000
     10 N10        113.5420 241.6357 325.0943 N.am           1 RES1               0.0000
     11 O11        114.5516 243.1401 326.4251 O.2            1 RES1               0.0000
     12 C12        111.7763 244.7586 325.4726 C.3            1 RES1               0.0000
     13 C13        117.0311 245.9440 323.3633 C.ar           1 RES1               0.0000
     14 C14        117.5251 243.6307 323.0735 C.ar           1 RES1               0.0000
     15 C15        113.0243 241.1900 323.9088 C.2            1 RES1               0.0000
     16 C16        117.9236 244.9496 323.0237 C.ar           1 RES1               0.0000
     17 O17        112.6652 240.0283 323.7395 O.2            1 RES1               0.0000
     18 H18        113.7245 245.6422 325.5874 H              1 RES1               0.0000
     19 H19        112.9091 245.8643 324.0292 H              1 RES1               0.0000
     20 H20        115.0531 246.4166 324.0142 H              1 RES1               0.0000
     21 H21        115.9448 242.2605 323.4940 H              1 RES1               0.0000
     22 H22        112.6284 241.7697 321.9912 H              1 RES1               0.0000
     23 H23        113.5747 240.9694 325.8594 H              1 RES1               0.0000
     24 H24        111.2668 245.6365 325.8644 H              1 RES1               0.0000
     25 H25        111.1215 244.2833 324.7452 H              1 RES1               0.0000
     26 H26        111.9322 244.0625 326.2942 H              1 RES1               0.0000
     27 H27        117.3394 246.9836 323.3244 H              1 RES1               0.0000
     28 H28        118.2240 242.8448 322.8066 H              1 RES1               0.0000
     29 H29        118.9334 245.2034 322.7188 H              1 RES1               0.0000
@<TRIPOS>BOND
    1    1    2 1     
    2    1    3 1     
    3    1    4 1     
    4    1    5 1     
    5    2    6 ar    
    6    2    7 ar    
    7    3    8 1     
    8    3    9 2     
    9    4   10 1     
   10    4   11 2     
   11    5   12 1     
   12    5   18 1     
   13    5   19 1     
   14    6   13 ar    
   15    6   20 1     
   16    7   14 ar    
   17    7   21 1     
   18    8   15 1     
   19    8   22 1     
   20   10   15 1     
   21   10   23 1     
   22   12   24 1     
   23   12   25 1     
   24   12   26 1     
   25   13   16 ar    
   26   13   27 1     
   27   14   16 ar    
   28   14   28 1     
   29   15   17 2     
   30   16   29 1     
@<TRIPOS>SUBSTRUCTURE
      1 RES1           1
@<TRIPOS>SET
DONOR_HYDROGENS      STATIC     ATOMS    <user>   **** ""
2 22 23
ATOM$RED        STATIC     ATOMS    COLORGROUP SYSTEM
2 22 23
@<TRIPOS>COMMENT
> <Gold.Version>
2022.3.0

> <Gold.Id.Protein>
unknown|4uch_clean|pdb

> <Gold.Protein.RotatedTorsions>
[ 1282 1268 1269 1270 ] final   56.88 input   42.93 | X-H torsion
[ 12864 12852 12853 12854 ] final  -55.22 input  102.46 | X-H torsion
[ 12872 12863 12862 12860 ] final   31.97 input   59.97 | X-H torsion
[ 12900 12891 12892 12893 ] final  152.51 input   33.49 | X-H torsion
[ 12960 12952 12953 12954 ] final   31.46 input  127.22 | X-H torsion
[ 13446 13426 13425 13421 ] final  162.08 input   59.98 | X-H torsion
[ 1244 1232 1233 1234 ] final  117.05 input  119.89 | X-H torsion
[ 5550 5545 5544 5541 ] final   60.52 input   60.01 | X-H torsion
[ 3548 3542 3543 3544 ] final  163.65 input   78.91 | X-H torsion
[ 3570 3563 3564 3565 ] final -144.54 input  104.01 | X-H torsion
[ 3596 3592 3593 3594 ] final   65.46 input   81.17 | X-H torsion
[ 8428 8423 8424 8425 ] final  170.40 input   41.93 | X-H torsion
[ 8452 8445 8446 8447 ] final -175.07 input   98.48 | X-H torsion
[ 8978 8972 8973 8974 ] final  -99.99 input   32.89 | X-H torsion
[ 8996 8992 8993 8994 ] final -140.72 input   45.98 | X-H torsion
[ 9030 9016 9017 9018 ] final   96.86 input   38.77 | X-H torsion
[ 9074 9062 9063 9064 ] final  -71.33 input   99.93 | X-H torsion
[ 9108 9100 9101 9102 ] final   57.03 input   97.82 | X-H torsion
[ 8482 8476 8477 8478 ] final  -25.77 input   55.16 | X-H torsion
[ 9082 9073 9072 9070 ] final -150.97 input   60.02 | X-H torsion
[ 8948 8937 8938 8939 ] final    6.16 input   49.52 | X-H torsion
[ 8982 8977 8976 8973 ] final   61.35 input   60.00 | X-H torsion
[ 4890 4885 4884 4881 ] final  159.43 input   59.99 | X-H torsion
[ 5574 5565 5566 5567 ] final  -53.02 input   50.85 | X-H torsion
[ 5606 5598 5599 5600 ] final -111.71 input  117.92 | X-H torsion
[ 8328 8319 8318 8316 ] final  171.06 input   59.98 | X-H torsion
[ 5644 5636 5637 5638 ] final  119.09 input   69.86 | X-H torsion
[ 13451 13428 13427 13425 ] final  -12.10 input   60.01 | X-H torsion
[ 8508 8500 8501 8502 ] final   68.94 input   75.08 | X-H torsion
[ 4906 4901 4902 4903 ] final  -58.72 input   29.84 | X-H torsion
[ 13460 1235 1234 1233 ] final  -89.89 input    0.00 | X-H torsion
[ 13464 8503 8502 8501 ] final   21.87 input    0.00 | X-H torsion
[ 13466 12822 12821 12820 ] final -179.52 input   -0.00 | X-H torsion
[ 13469 12855 12854 12853 ] final   90.83 input   -0.00 | X-H torsion
[ 13474 12894 12893 12892 ] final  -52.80 input    0.00 | X-H torsion
[ 13493 5543 5542 5541 ] final  -18.18 input    0.00 | X-H torsion
[ 13497 3502 3501 3500 ] final -130.39 input   -0.00 | X-H torsion
[ 13500 3545 3544 3543 ] final  112.06 input    0.00 | X-H torsion
[ 13505 8400 8399 8398 ] final -121.82 input   -0.00 | X-H torsion
[ 13509 8448 8447 8446 ] final   83.05 input    0.00 | X-H torsion
[ 13511 8940 8939 8938 ] final -118.12 input    0.00 | X-H torsion
[ 13514 8975 8974 8973 ] final  108.80 input   -0.00 | X-H torsion
[ 13517 8995 8994 8993 ] final  166.92 input    0.00 | X-H torsion
[ 13520 9019 9018 9017 ] final  -94.37 input   -0.00 | X-H torsion
[ 13528 8426 8425 8424 ] final  -65.37 input    0.00 | X-H torsion
[ 13530 8363 8362 8361 ] final -165.41 input    0.00 | X-H torsion
[ 13542 5639 5638 5637 ] final -166.83 input    0.00 | X-H torsion
[ 13548 9180 9179 9178 ] final -135.11 input   -0.00 | X-H torsion

> <Gold.Protein.ActiveResidues>
 TRP311  MET341  HIS342  TRP414  ALA417  ARG419  CYS420  VAL421  GLY422  ARG423 
 SER462  ALA463  SER482  GLN483  LEU484  ILE485  ARG486  TRP566  TYR567  LEU569 
 PRO570  ALA571  VAL572  SER573  ASN574  MET575  PHE589  SER590  GLY591  TRP592 
 TYR593  MET594  GLU597  ILE598  ARG601  ASP602  ARG608  TRP683  PHE696  GLU710 
 TYR711  GLN712  PRO713  ASP714  HEM750  H4B760 

> <Gold.Protein.RotatedAtoms>
  106.1161  253.0339  335.2437 H   0  0  0  0  0  0  0  0  0  0  0  0  # atno 1244 bound_to 1232
  105.4820  254.6270  332.9113 H   0  0  0  0  0  0  0  0  0  0  0  0  # atno 1282 bound_to 1268
  118.5184  251.9631  327.8896 H   0  0  0  0  0  0  0  0  0  0  0  0  # atno 3548 bound_to 3542
  121.0414  249.6406  329.0103 H   0  0  0  0  0  0  0  0  0  0  0  0  # atno 3570 bound_to 3563
  122.8084  248.7916  326.5184 H   0  0  0  0  0  0  0  0  0  0  0  0  # atno 3596 bound_to 3592
  125.3870  247.2997  318.2292 H   0  0  0  0  0  0  0  0  0  0  0  0  # atno 4890 bound_to 4885
  122.3397  248.0428  315.0172 H   0  0  0  0  0  0  0  0  0  0  0  0  # atno 4906 bound_to 4901
  107.1892  243.9329  320.4950 H   0  0  0  0  0  0  0  0  0  0  0  0  # atno 5550 bound_to 5545
  107.7512  244.8301  317.5862 H   0  0  0  0  0  0  0  0  0  0  0  0  # atno 5574 bound_to 5565
  109.8279  243.8532  315.8167 H   0  0  0  0  0  0  0  0  0  0  0  0  # atno 5606 bound_to 5598
  111.9337  240.8516  314.9532 H   0  0  0  0  0  0  0  0  0  0  0  0  # atno 5644 bound_to 5636
  112.0543  239.4073  321.0263 H   0  0  0  0  0  0  0  0  0  0  0  0  # atno 8328 bound_to 8319
  115.7513  242.4253  317.8607 H   0  0  0  0  0  0  0  0  0  0  0  0  # atno 8428 bound_to 8423
  114.3060  245.5128  318.9612 H   0  0  0  0  0  0  0  0  0  0  0  0  # atno 8452 bound_to 8445
  110.8876  248.2259  318.3855 H   0  0  0  0  0  0  0  0  0  0  0  0  # atno 8482 bound_to 8476
  109.5338  249.2367  318.6208 H   0  0  0  0  0  0  0  0  0  0  0  0  # atno 8508 bound_to 8500
  114.6258  248.4453  315.7362 H   0  0  0  0  0  0  0  0  0  0  0  0  # atno 8948 bound_to 8937
  117.6467  247.8298  316.8160 H   0  0  0  0  0  0  0  0  0  0  0  0  # atno 8978 bound_to 8972
  120.0585  244.7774  314.9033 H   0  0  0  0  0  0  0  0  0  0  0  0  # atno 8982 bound_to 8977
  119.9607  245.6779  317.5163 H   0  0  0  0  0  0  0  0  0  0  0  0  # atno 8996 bound_to 8992
  122.9178  243.4126  320.1424 H   0  0  0  0  0  0  0  0  0  0  0  0  # atno 9030 bound_to 9016
  121.6710  240.9487  321.9813 H   0  0  0  0  0  0  0  0  0  0  0  0  # atno 9074 bound_to 9062
  114.0673  238.1540  321.8849 H   0  0  0  0  0  0  0  0  0  0  0  0  # atno 9082 bound_to 9073
  120.2459  240.5787  325.5791 H   0  0  0  0  0  0  0  0  0  0  0  0  # atno 9108 bound_to 9100
  109.4298  256.9919  322.9782 H   0  0  0  0  0  0  0  0  0  0  0  0  # atno 12864 bound_to 12852
  111.1372  251.3155  327.3889 H   0  0  0  0  0  0  0  0  0  0  0  0  # atno 12872 bound_to 12863
  106.7878  255.8615  321.8285 H   0  0  0  0  0  0  0  0  0  0  0  0  # atno 12900 bound_to 12891
  100.0377  253.2752  321.0033 H   0  0  0  0  0  0  0  0  0  0  0  0  # atno 12960 bound_to 12952
  107.9748  246.6034  337.0412 H   0  0  0  0  0  0  0  0  0  0  0  0  # atno 13446 bound_to 13426
  109.9241  250.0268  335.7689 H   0  0  0  0  0  0  0  0  0  0  0  0  # atno 13451 bound_to 13428
  109.1013  254.7071  331.8569 LP  0  0  0  0  0  0  0  0  0  0  0  0  # atno 13460 bound_to 1235
  108.2299  253.7071  330.7431 LP  0  0  0  0  0  0  0  0  0  0  0  0  # atno 13461 bound_to 1235
  107.1881  254.4449  332.5570 LP  0  0  0  0  0  0  0  0  0  0  0  0  # atno 13462 bound_to 1268
  106.2636  252.0993  319.4873 LP  0  0  0  0  0  0  0  0  0  0  0  0  # atno 13464 bound_to 8503
  107.2794  253.4771  319.2234 LP  0  0  0  0  0  0  0  0  0  0  0  0  # atno 13465 bound_to 8503
  109.1502  255.4168  321.5691 LP  0  0  0  0  0  0  0  0  0  0  0  0  # atno 13466 bound_to 12822
  110.5009  256.3438  321.0068 LP  0  0  0  0  0  0  0  0  0  0  0  0  # atno 13467 bound_to 12822
  109.2968  256.6905  324.6918 LP  0  0  0  0  0  0  0  0  0  0  0  0  # atno 13468 bound_to 12852
  107.1695  258.1411  322.0224 LP  0  0  0  0  0  0  0  0  0  0  0  0  # atno 13469 bound_to 12855
  106.1658  258.1140  323.4338 LP  0  0  0  0  0  0  0  0  0  0  0  0  # atno 13470 bound_to 12855
  110.0813  251.4104  328.6233 LP  0  0  0  0  0  0  0  0  0  0  0  0  # atno 13471 bound_to 12863
  111.2697  252.5204  328.4744 LP  0  0  0  0  0  0  0  0  0  0  0  0  # atno 13472 bound_to 12863
  105.6921  255.0201  322.8985 LP  0  0  0  0  0  0  0  0  0  0  0  0  # atno 13473 bound_to 12891
  104.3029  253.5395  321.5388 LP  0  0  0  0  0  0  0  0  0  0  0  0  # atno 13474 bound_to 12894
  103.0597  253.8272  322.7099 LP  0  0  0  0  0  0  0  0  0  0  0  0  # atno 13475 bound_to 12894
  101.6216  252.5915  321.2869 LP  0  0  0  0  0  0  0  0  0  0  0  0  # atno 13476 bound_to 12952
  109.5262  246.1416  336.8762 LP  0  0  0  0  0  0  0  0  0  0  0  0  # atno 13490 bound_to 13426
  108.4710  245.9218  335.6495 LP  0  0  0  0  0  0  0  0  0  0  0  0  # atno 13491 bound_to 13426
  107.5413  254.0473  335.3193 LP  0  0  0  0  0  0  0  0  0  0  0  0  # atno 13492 bound_to 1232
  108.9221  247.1929  318.9789 LP  0  0  0  0  0  0  0  0  0  0  0  0  # atno 13493 bound_to 5543
  109.9914  245.8317  319.0420 LP  0  0  0  0  0  0  0  0  0  0  0  0  # atno 13494 bound_to 5543
  105.6782  243.7377  319.9226 LP  0  0  0  0  0  0  0  0  0  0  0  0  # atno 13495 bound_to 5545
  105.9166  244.1177  321.4927 LP  0  0  0  0  0  0  0  0  0  0  0  0  # atno 13496 bound_to 5545
  118.9289  249.3792  329.7096 LP  0  0  0  0  0  0  0  0  0  0  0  0  # atno 13497 bound_to 3502
  117.2371  249.6848  329.4984 LP  0  0  0  0  0  0  0  0  0  0  0  0  # atno 13498 bound_to 3502
  119.6831  251.7553  329.1732 LP  0  0  0  0  0  0  0  0  0  0  0  0  # atno 13499 bound_to 3542
  122.5890  251.4655  328.8872 LP  0  0  0  0  0  0  0  0  0  0  0  0  # atno 13500 bound_to 3545
  122.6384  251.3853  327.1577 LP  0  0  0  0  0  0  0  0  0  0  0  0  # atno 13501 bound_to 3545
  121.3053  248.5983  327.6273 LP  0  0  0  0  0  0  0  0  0  0  0  0  # atno 13502 bound_to 3563
  123.8169  248.0613  327.7441 LP  0  0  0  0  0  0  0  0  0  0  0  0  # atno 13503 bound_to 3592
  117.2157  244.4424  318.8366 LP  0  0  0  0  0  0  0  0  0  0  0  0  # atno 13505 bound_to 8400
  118.0500  243.2071  317.9546 LP  0  0  0  0  0  0  0  0  0  0  0  0  # atno 13506 bound_to 8400
  114.4825  243.0020  318.9103 LP  0  0  0  0  0  0  0  0  0  0  0  0  # atno 13507 bound_to 8423
  114.2283  246.3237  317.4147 LP  0  0  0  0  0  0  0  0  0  0  0  0  # atno 13508 bound_to 8445
  113.5292  248.2123  316.3007 LP  0  0  0  0  0  0  0  0  0  0  0  0  # atno 13509 bound_to 8448
  113.0935  249.5601  317.2976 LP  0  0  0  0  0  0  0  0  0  0  0  0  # atno 13510 bound_to 8448
  116.1431  246.9599  317.9611 LP  0  0  0  0  0  0  0  0  0  0  0  0  # atno 13511 bound_to 8940
  115.2068  246.8338  316.5093 LP  0  0  0  0  0  0  0  0  0  0  0  0  # atno 13512 bound_to 8940
  118.4454  247.4494  315.3098 LP  0  0  0  0  0  0  0  0  0  0  0  0  # atno 13513 bound_to 8972
  121.1459  247.2730  317.2383 LP  0  0  0  0  0  0  0  0  0  0  0  0  # atno 13514 bound_to 8975
  121.0968  246.3238  315.7903 LP  0  0  0  0  0  0  0  0  0  0  0  0  # atno 13515 bound_to 8975
  119.3633  244.3777  318.5203 LP  0  0  0  0  0  0  0  0  0  0  0  0  # atno 13516 bound_to 8992
  121.8174  241.5605  317.9864 LP  0  0  0  0  0  0  0  0  0  0  0  0  # atno 13517 bound_to 8995
  120.9973  242.8180  317.1226 LP  0  0  0  0  0  0  0  0  0  0  0  0  # atno 13518 bound_to 8995
  121.2124  243.2960  319.7853 LP  0  0  0  0  0  0  0  0  0  0  0  0  # atno 13519 bound_to 9016
  122.2968  242.4429  323.2107 LP  0  0  0  0  0  0  0  0  0  0  0  0  # atno 13520 bound_to 9019
  120.7014  242.7661  322.6187 LP  0  0  0  0  0  0  0  0  0  0  0  0  # atno 13521 bound_to 9019
  121.4237  239.2940  321.4777 LP  0  0  0  0  0  0  0  0  0  0  0  0  # atno 13522 bound_to 9062
  121.8533  240.3590  324.9303 LP  0  0  0  0  0  0  0  0  0  0  0  0  # atno 13523 bound_to 9100
  112.2848  244.6452  316.4197 LP  0  0  0  0  0  0  0  0  0  0  0  0  # atno 13528 bound_to 8426
  111.9184  244.3929  318.0936 LP  0  0  0  0  0  0  0  0  0  0  0  0  # atno 13529 bound_to 8426
  114.9311  240.4563  317.5333 LP  0  0  0  0  0  0  0  0  0  0  0  0  # atno 13530 bound_to 8363
  115.1742  239.0174  316.6002 LP  0  0  0  0  0  0  0  0  0  0  0  0  # atno 13531 bound_to 8363
  111.4025  246.8883  317.3881 LP  0  0  0  0  0  0  0  0  0  0  0  0  # atno 13532 bound_to 8476
  114.2658  239.7551  321.6727 LP  0  0  0  0  0  0  0  0  0  0  0  0  # atno 13533 bound_to 9073
  113.9219  239.1614  323.1546 LP  0  0  0  0  0  0  0  0  0  0  0  0  # atno 13534 bound_to 9073
  114.9285  249.9207  314.8471 LP  0  0  0  0  0  0  0  0  0  0  0  0  # atno 13535 bound_to 8937
  119.0520  245.8191  314.1617 LP  0  0  0  0  0  0  0  0  0  0  0  0  # atno 13536 bound_to 8977
  118.9272  244.2160  313.8770 LP  0  0  0  0  0  0  0  0  0  0  0  0  # atno 13537 bound_to 8977
  125.2479  245.9059  317.4015 LP  0  0  0  0  0  0  0  0  0  0  0  0  # atno 13538 bound_to 4885
  123.9738  246.4935  318.2371 LP  0  0  0  0  0  0  0  0  0  0  0  0  # atno 13539 bound_to 4885
  108.0055  243.9325  319.0639 LP  0  0  0  0  0  0  0  0  0  0  0  0  # atno 13540 bound_to 5565
  111.3085  242.9855  316.1440 LP  0  0  0  0  0  0  0  0  0  0  0  0  # atno 13541 bound_to 5598
  110.4812  238.9531  318.6360 LP  0  0  0  0  0  0  0  0  0  0  0  0  # atno 13542 bound_to 5639
  111.5652  239.8729  317.6465 LP  0  0  0  0  0  0  0  0  0  0  0  0  # atno 13543 bound_to 5639
  111.2993  238.1812  321.7850 LP  0  0  0  0  0  0  0  0  0  0  0  0  # atno 13544 bound_to 8319
  110.5918  238.9146  320.5091 LP  0  0  0  0  0  0  0  0  0  0  0  0  # atno 13545 bound_to 8319
  113.5125  237.2831  328.8839 LP  0  0  0  0  0  0  0  0  0  0  0  0  # atno 13548 bound_to 9180
  113.4392  238.8765  328.2090 LP  0  0  0  0  0  0  0  0  0  0  0  0  # atno 13549 bound_to 9180
  110.2128  241.1253  315.1094 LP  0  0  0  0  0  0  0  0  0  0  0  0  # atno 13552 bound_to 5636

> <Gold.Score>
     Fitness  S(hb_ext) S(vdw_ext)  S(hb_int)    S(int)      intcor
     39.55       4.22      26.32       0.00      -0.86      -0.76

> <Gold.Goldscore.Fitness>
39.5536

> <Gold.Goldscore.Internal.Vdw>
-1.1142

> <Gold.Goldscore.Internal.Torsion>
-0.5006

> <Gold.Goldscore.External.Vdw>
26.3229

> <Gold.Goldscore.Internal.HBond>
0.0000

> <Gold.Goldscore.External.HBond>
4.2159

> <Gold.Goldscore.Internal.Correction>
-0.7585

> <Gold.Goldscore.Hbonds>
donor molecule, donor type, donor heavy atom, donor atom, acceptor molecule, acceptor atom, score
      L1  H     8    22       P1  5573  0.70

> <Gold.Goldscore.Internal.Vdw.Weighted>
-1.1142

> <Gold.Goldscore.Internal.Torsion.Weighted>
-0.5006

> <Gold.Goldscore.External.Vdw.Weighted>
36.1939

> <Gold.Goldscore.Internal.HBond.Weighted>
0.0000

> <Gold.Goldscore.External.HBond.Weighted>
4.2159

> <Gold.Goldscore.Internal.Correction.Weighted>
-0.7585

> <Gold.Rescore>
     Score     S(PLP)   S(hbond)     S(cho)   S(metal)  DE(clash)   DE(tors)     intcor
     24.41     -25.16       0.20       0.00       0.00       0.00       0.68       ----

> <Gold.PLP.Fitness>
24.4107

> <Gold.PLP.PLP>
-25.1594

> <Gold.PLP.part.hbond>
-3.3252

> <Gold.PLP.part.metal>
0.0000

> <Gold.PLP.part.buried>
8.7347

> <Gold.PLP.part.nonpolar>
-34.6427

> <Gold.PLP.part.repulsive>
2.4987

> <Gold.PLP.ligand.clash>
0.0000

> <Gold.PLP.ligand.torsion>
0.6801

> <Gold.PLP.Chemscore.Hbond>
0.2038

> <Gold.PLP.Chemscore.CHOScore>
0.0000

> <Gold.PLP.Chemscore.Metal>
0.0000

> <Gold.Chemscore.Hbonds>
donor molecule, donor type, donor heavy atom, donor atom, acceptor molecule, acceptor atom, score
      L1  H     8    22       P1  5573  0.40

> <Gold.PLP.Chemscore.Internal.Correction>
   9.000000E+99

