#       Name:                CT1002167954
#       Creating user name   hitesit
#       Creation time:       Sun Apr 16 22:52:05 2023


#       File generated by GOLD software.
#

@<TRIPOS>MOLECULE
CT1002167954|ligand_prepared|mol2|1|dock5
    29    30     1
SMALL
NO_CHARGES


@<TRIPOS>ATOM
      1 C1         117.6530 245.2763 322.7949 C.3            1 RES1               0.0000
      2 C2         116.2040 244.7822 322.6073 C.ar           1 RES1               0.0000
      3 C3         118.4342 244.7839 321.5802 C.2            1 RES1               0.0000
      4 C4         117.5743 246.7946 322.9102 C.2            1 RES1               0.0000
      5 C5         118.3374 244.7350 324.0716 C.3            1 RES1               0.0000
      6 C6         115.7606 244.3428 321.3635 C.ar           1 RES1               0.0000
      7 C7         115.3016 244.7574 323.6674 C.ar           1 RES1               0.0000
      8 N8         118.7769 245.7041 320.6338 N.am           1 RES1               0.0000
      9 O9         118.7109 243.5995 321.4357 O.2            1 RES1               0.0000
     10 N10        118.1475 247.5446 321.9169 N.am           1 RES1               0.0000
     11 O11        117.0067 247.3481 323.8439 O.2            1 RES1               0.0000
     12 C12        119.2306 243.5295 323.8243 C.3            1 RES1               0.0000
     13 C13        114.4629 243.8922 321.1864 C.ar           1 RES1               0.0000
     14 C14        114.0043 244.3065 323.4880 C.ar           1 RES1               0.0000
     15 C15        118.7184 247.0680 320.7683 C.2            1 RES1               0.0000
     16 C16        113.5842 243.8733 322.2485 C.ar           1 RES1               0.0000
     17 O17        119.1639 247.8074 319.8954 O.2            1 RES1               0.0000
     18 H18        118.9408 245.5364 324.5156 H              1 RES1               0.0000
     19 H19        117.5626 244.4575 324.7970 H              1 RES1               0.0000
     20 H20        116.4372 244.3527 320.5155 H              1 RES1               0.0000
     21 H21        115.6099 245.0945 324.6512 H              1 RES1               0.0000
     22 H22        119.1071 245.3449 319.7437 H              1 RES1               0.0000
     23 H23        118.1489 248.5514 322.0456 H              1 RES1               0.0000
     24 H24        119.6858 243.1899 324.7523 H              1 RES1               0.0000
     25 H25        118.6578 242.7044 323.4061 H              1 RES1               0.0000
     26 H26        120.0278 243.7768 323.1263 H              1 RES1               0.0000
     27 H27        114.1368 243.5536 320.2086 H              1 RES1               0.0000
     28 H28        113.3159 244.2940 324.3266 H              1 RES1               0.0000
     29 H29        112.5678 243.5198 322.1096 H              1 RES1               0.0000
@<TRIPOS>BOND
    1    1    2 1     
    2    1    3 1     
    3    1    4 1     
    4    1    5 1     
    5    2    6 ar    
    6    2    7 ar    
    7    3    8 1     
    8    3    9 2     
    9    4   10 1     
   10    4   11 2     
   11    5   12 1     
   12    5   18 1     
   13    5   19 1     
   14    6   13 ar    
   15    6   20 1     
   16    7   14 ar    
   17    7   21 1     
   18    8   15 1     
   19    8   22 1     
   20   10   15 1     
   21   10   23 1     
   22   12   24 1     
   23   12   25 1     
   24   12   26 1     
   25   13   16 ar    
   26   13   27 1     
   27   14   16 ar    
   28   14   28 1     
   29   15   17 2     
   30   16   29 1     
@<TRIPOS>SUBSTRUCTURE
      1 RES1           1
@<TRIPOS>SET
DONOR_HYDROGENS      STATIC     ATOMS    <user>   **** ""
2 22 23
ATOM$RED        STATIC     ATOMS    COLORGROUP SYSTEM
2 22 23
@<TRIPOS>COMMENT
> <Gold.Version>
2022.3.0

> <Gold.Id.Protein>
unknown|4uch_clean|pdb

> <Gold.Protein.RotatedTorsions>
[ 1282 1268 1269 1270 ] final   -2.72 input   42.93 | X-H torsion
[ 12864 12852 12853 12854 ] final  153.00 input  102.46 | X-H torsion
[ 12872 12863 12862 12860 ] final  -58.76 input   59.97 | X-H torsion
[ 12900 12891 12892 12893 ] final  -82.79 input   33.49 | X-H torsion
[ 12960 12952 12953 12954 ] final  -84.32 input  127.22 | X-H torsion
[ 13446 13426 13425 13421 ] final  168.94 input   59.98 | X-H torsion
[ 1244 1232 1233 1234 ] final  120.80 input  119.89 | X-H torsion
[ 5550 5545 5544 5541 ] final -127.99 input   60.01 | X-H torsion
[ 3548 3542 3543 3544 ] final  -78.44 input   78.91 | X-H torsion
[ 3570 3563 3564 3565 ] final  177.16 input  104.01 | X-H torsion
[ 3596 3592 3593 3594 ] final    2.95 input   81.17 | X-H torsion
[ 8428 8423 8424 8425 ] final  114.70 input   41.93 | X-H torsion
[ 8452 8445 8446 8447 ] final  -89.34 input   98.48 | X-H torsion
[ 8978 8972 8973 8974 ] final   90.81 input   32.89 | X-H torsion
[ 8996 8992 8993 8994 ] final  -76.33 input   45.98 | X-H torsion
[ 9030 9016 9017 9018 ] final  -10.62 input   38.77 | X-H torsion
[ 9074 9062 9063 9064 ] final  128.49 input   99.93 | X-H torsion
[ 9108 9100 9101 9102 ] final   55.22 input   97.82 | X-H torsion
[ 8482 8476 8477 8478 ] final -127.13 input   55.16 | X-H torsion
[ 9082 9073 9072 9070 ] final -109.75 input   60.02 | X-H torsion
[ 8948 8937 8938 8939 ] final -173.78 input   49.52 | X-H torsion
[ 8982 8977 8976 8973 ] final  -62.30 input   60.00 | X-H torsion
[ 4890 4885 4884 4881 ] final   99.59 input   59.99 | X-H torsion
[ 5574 5565 5566 5567 ] final  -22.19 input   50.85 | X-H torsion
[ 5606 5598 5599 5600 ] final  -15.79 input  117.92 | X-H torsion
[ 8328 8319 8318 8316 ] final  173.84 input   59.98 | X-H torsion
[ 5644 5636 5637 5638 ] final  -82.41 input   69.86 | X-H torsion
[ 13451 13428 13427 13425 ] final  136.01 input   60.01 | X-H torsion
[ 8508 8500 8501 8502 ] final -143.45 input   75.08 | X-H torsion
[ 4906 4901 4902 4903 ] final  -85.23 input   29.84 | X-H torsion
[ 13460 1235 1234 1233 ] final   44.02 input    0.00 | X-H torsion
[ 13464 8503 8502 8501 ] final  -47.43 input    0.00 | X-H torsion
[ 13466 12822 12821 12820 ] final   77.41 input   -0.00 | X-H torsion
[ 13469 12855 12854 12853 ] final  159.09 input   -0.00 | X-H torsion
[ 13474 12894 12893 12892 ] final -126.37 input    0.00 | X-H torsion
[ 13493 5543 5542 5541 ] final   64.81 input    0.00 | X-H torsion
[ 13497 3502 3501 3500 ] final  -54.70 input   -0.00 | X-H torsion
[ 13500 3545 3544 3543 ] final -159.69 input    0.00 | X-H torsion
[ 13505 8400 8399 8398 ] final -154.38 input   -0.00 | X-H torsion
[ 13509 8448 8447 8446 ] final -145.16 input    0.00 | X-H torsion
[ 13511 8940 8939 8938 ] final -135.85 input    0.00 | X-H torsion
[ 13514 8975 8974 8973 ] final   52.41 input   -0.00 | X-H torsion
[ 13517 8995 8994 8993 ] final  -63.18 input    0.00 | X-H torsion
[ 13520 9019 9018 9017 ] final   56.72 input   -0.00 | X-H torsion
[ 13528 8426 8425 8424 ] final   37.02 input    0.00 | X-H torsion
[ 13530 8363 8362 8361 ] final  -47.24 input    0.00 | X-H torsion
[ 13542 5639 5638 5637 ] final -170.96 input    0.00 | X-H torsion
[ 13548 9180 9179 9178 ] final -128.62 input   -0.00 | X-H torsion

> <Gold.Protein.ActiveResidues>
 TRP311  MET341  HIS342  TRP414  ALA417  ARG419  CYS420  VAL421  GLY422  ARG423 
 SER462  ALA463  SER482  GLN483  LEU484  ILE485  ARG486  TRP566  TYR567  LEU569 
 PRO570  ALA571  VAL572  SER573  ASN574  MET575  PHE589  SER590  GLY591  TRP592 
 TYR593  MET594  GLU597  ILE598  ARG601  ASP602  ARG608  TRP683  PHE696  GLU710 
 TYR711  GLN712  PRO713  ASP714  HEM750  H4B760 

> <Gold.Protein.RotatedAtoms>
  106.1480  252.9908  335.2665 H   0  0  0  0  0  0  0  0  0  0  0  0  # atno 1244 bound_to 1232
  106.0842  255.0359  333.4194 H   0  0  0  0  0  0  0  0  0  0  0  0  # atno 1282 bound_to 1268
  118.9221  251.2741  329.1683 H   0  0  0  0  0  0  0  0  0  0  0  0  # atno 3548 bound_to 3542
  120.8132  249.1132  329.1211 H   0  0  0  0  0  0  0  0  0  0  0  0  # atno 3570 bound_to 3563
  123.4684  249.2695  326.9379 H   0  0  0  0  0  0  0  0  0  0  0  0  # atno 3596 bound_to 3592
  125.7613  246.6450  317.6789 H   0  0  0  0  0  0  0  0  0  0  0  0  # atno 4890 bound_to 4885
  122.6960  248.0173  314.8268 H   0  0  0  0  0  0  0  0  0  0  0  0  # atno 4906 bound_to 4901
  105.3680  243.9606  320.9090 H   0  0  0  0  0  0  0  0  0  0  0  0  # atno 5550 bound_to 5545
  107.5805  244.4006  317.5023 H   0  0  0  0  0  0  0  0  0  0  0  0  # atno 5574 bound_to 5565
  110.1875  242.6834  316.2889 H   0  0  0  0  0  0  0  0  0  0  0  0  # atno 5606 bound_to 5598
  110.2093  241.0596  314.7883 H   0  0  0  0  0  0  0  0  0  0  0  0  # atno 5644 bound_to 5636
  112.0338  239.4270  320.9909 H   0  0  0  0  0  0  0  0  0  0  0  0  # atno 8328 bound_to 8319
  114.9803  242.2025  317.6885 H   0  0  0  0  0  0  0  0  0  0  0  0  # atno 8428 bound_to 8423
  113.6969  245.2871  317.9481 H   0  0  0  0  0  0  0  0  0  0  0  0  # atno 8452 bound_to 8445
  111.9493  247.8181  317.6351 H   0  0  0  0  0  0  0  0  0  0  0  0  # atno 8482 bound_to 8476
  108.8671  248.9452  317.0948 H   0  0  0  0  0  0  0  0  0  0  0  0  # atno 8508 bound_to 8500
  114.9458  249.9399  314.8363 H   0  0  0  0  0  0  0  0  0  0  0  0  # atno 8948 bound_to 8937
  118.3036  247.3925  315.2464 H   0  0  0  0  0  0  0  0  0  0  0  0  # atno 8978 bound_to 8972
  119.0119  245.7906  314.1271 H   0  0  0  0  0  0  0  0  0  0  0  0  # atno 8982 bound_to 8977
  119.9459  244.7823  317.2223 H   0  0  0  0  0  0  0  0  0  0  0  0  # atno 8996 bound_to 8992
  121.6188  243.5137  320.7096 H   0  0  0  0  0  0  0  0  0  0  0  0  # atno 9030 bound_to 9016
  121.1607  239.3992  321.3751 H   0  0  0  0  0  0  0  0  0  0  0  0  # atno 9074 bound_to 9062
  113.9421  238.1447  322.5320 H   0  0  0  0  0  0  0  0  0  0  0  0  # atno 9082 bound_to 9073
  120.2407  240.5519  325.5740 H   0  0  0  0  0  0  0  0  0  0  0  0  # atno 9108 bound_to 9100
  109.5653  256.3854  324.5655 H   0  0  0  0  0  0  0  0  0  0  0  0  # atno 12864 bound_to 12852
  110.1441  251.1178  328.2546 H   0  0  0  0  0  0  0  0  0  0  0  0  # atno 12872 bound_to 12863
  105.9248  255.7616  323.1310 H   0  0  0  0  0  0  0  0  0  0  0  0  # atno 12900 bound_to 12891
  101.4770  253.1908  320.5913 H   0  0  0  0  0  0  0  0  0  0  0  0  # atno 12960 bound_to 12952
  107.9075  246.5856  336.9536 H   0  0  0  0  0  0  0  0  0  0  0  0  # atno 13446 bound_to 13426
  108.8509  250.8037  336.9866 H   0  0  0  0  0  0  0  0  0  0  0  0  # atno 13451 bound_to 13428
  108.6256  253.3527  331.1643 LP  0  0  0  0  0  0  0  0  0  0  0  0  # atno 13460 bound_to 1235
  108.7056  255.0615  331.4357 LP  0  0  0  0  0  0  0  0  0  0  0  0  # atno 13461 bound_to 1235
  106.6091  254.0517  332.0684 LP  0  0  0  0  0  0  0  0  0  0  0  0  # atno 13462 bound_to 1268
  106.3060  252.6109  318.6469 LP  0  0  0  0  0  0  0  0  0  0  0  0  # atno 13464 bound_to 8503
  107.2370  252.9656  320.0638 LP  0  0  0  0  0  0  0  0  0  0  0  0  # atno 13465 bound_to 8503
  110.5064  255.4193  321.5599 LP  0  0  0  0  0  0  0  0  0  0  0  0  # atno 13466 bound_to 12822
  109.1448  256.3413  321.0160 LP  0  0  0  0  0  0  0  0  0  0  0  0  # atno 13467 bound_to 12822
  109.1632  257.2882  323.1274 LP  0  0  0  0  0  0  0  0  0  0  0  0  # atno 13468 bound_to 12852
  106.1987  258.1014  322.0005 LP  0  0  0  0  0  0  0  0  0  0  0  0  # atno 13469 bound_to 12855
  107.1366  258.1538  323.4557 LP  0  0  0  0  0  0  0  0  0  0  0  0  # atno 13470 bound_to 12855
  110.9145  252.4498  328.7840 LP  0  0  0  0  0  0  0  0  0  0  0  0  # atno 13471 bound_to 12863
  111.4367  251.6802  327.4417 LP  0  0  0  0  0  0  0  0  0  0  0  0  # atno 13472 bound_to 12863
  106.5354  255.1177  321.6257 LP  0  0  0  0  0  0  0  0  0  0  0  0  # atno 13473 bound_to 12891
  103.2851  253.3831  321.4151 LP  0  0  0  0  0  0  0  0  0  0  0  0  # atno 13474 bound_to 12894
  104.0774  253.9835  322.8335 LP  0  0  0  0  0  0  0  0  0  0  0  0  # atno 13475 bound_to 12894
  100.2182  252.6737  321.6887 LP  0  0  0  0  0  0  0  0  0  0  0  0  # atno 13476 bound_to 12952
  109.4854  246.1892  336.9699 LP  0  0  0  0  0  0  0  0  0  0  0  0  # atno 13490 bound_to 13426
  108.5795  245.8921  335.6441 LP  0  0  0  0  0  0  0  0  0  0  0  0  # atno 13491 bound_to 13426
  107.5106  254.0890  335.2972 LP  0  0  0  0  0  0  0  0  0  0  0  0  # atno 13492 bound_to 1232
  109.2219  246.5009  319.8439 LP  0  0  0  0  0  0  0  0  0  0  0  0  # atno 13493 bound_to 5543
  109.6917  246.5237  318.1770 LP  0  0  0  0  0  0  0  0  0  0  0  0  # atno 13494 bound_to 5543
  106.9516  244.1020  321.2574 LP  0  0  0  0  0  0  0  0  0  0  0  0  # atno 13495 bound_to 5545
  106.4769  243.7256  319.7410 LP  0  0  0  0  0  0  0  0  0  0  0  0  # atno 13496 bound_to 5545
  118.2315  249.7165  330.4370 LP  0  0  0  0  0  0  0  0  0  0  0  0  # atno 13497 bound_to 3502
  117.9345  249.3475  328.7710 LP  0  0  0  0  0  0  0  0  0  0  0  0  # atno 13498 bound_to 3502
  119.2859  252.4334  327.9149 LP  0  0  0  0  0  0  0  0  0  0  0  0  # atno 13499 bound_to 3542
  123.2295  250.8207  328.0945 LP  0  0  0  0  0  0  0  0  0  0  0  0  # atno 13500 bound_to 3545
  121.9979  252.0300  327.9505 LP  0  0  0  0  0  0  0  0  0  0  0  0  # atno 13501 bound_to 3545
  121.5251  249.1065  327.5205 LP  0  0  0  0  0  0  0  0  0  0  0  0  # atno 13502 bound_to 3563
  123.1715  247.5939  327.3338 LP  0  0  0  0  0  0  0  0  0  0  0  0  # atno 13503 bound_to 3592
  117.1101  244.5146  318.3682 LP  0  0  0  0  0  0  0  0  0  0  0  0  # atno 13505 bound_to 8400
  118.1556  243.1348  318.4231 LP  0  0  0  0  0  0  0  0  0  0  0  0  # atno 13506 bound_to 8400
  115.2426  243.2216  319.0801 LP  0  0  0  0  0  0  0  0  0  0  0  0  # atno 13507 bound_to 8423
  114.8230  246.5439  318.4036 LP  0  0  0  0  0  0  0  0  0  0  0  0  # atno 13508 bound_to 8445
  112.6824  249.4773  316.7280 LP  0  0  0  0  0  0  0  0  0  0  0  0  # atno 13509 bound_to 8448
  113.9403  248.2951  316.8703 LP  0  0  0  0  0  0  0  0  0  0  0  0  # atno 13510 bound_to 8448
  116.2310  246.7227  317.8758 LP  0  0  0  0  0  0  0  0  0  0  0  0  # atno 13511 bound_to 8940
  115.1188  247.0710  316.5946 LP  0  0  0  0  0  0  0  0  0  0  0  0  # atno 13512 bound_to 8940
  117.8018  247.8778  316.8478 LP  0  0  0  0  0  0  0  0  0  0  0  0  # atno 13513 bound_to 8972
  120.6265  247.4966  316.6467 LP  0  0  0  0  0  0  0  0  0  0  0  0  # atno 13514 bound_to 8975
  121.6162  246.1001  316.3818 LP  0  0  0  0  0  0  0  0  0  0  0  0  # atno 13515 bound_to 8975
  119.3777  245.2517  318.8073 LP  0  0  0  0  0  0  0  0  0  0  0  0  # atno 13516 bound_to 8992
  120.5680  242.4027  317.5482 LP  0  0  0  0  0  0  0  0  0  0  0  0  # atno 13517 bound_to 8995
  122.2466  241.9758  317.5608 LP  0  0  0  0  0  0  0  0  0  0  0  0  # atno 13518 bound_to 8995
  122.4878  243.1968  319.2285 LP  0  0  0  0  0  0  0  0  0  0  0  0  # atno 13519 bound_to 9016
  120.9607  242.9987  322.3627 LP  0  0  0  0  0  0  0  0  0  0  0  0  # atno 13520 bound_to 9019
  122.0375  242.2103  323.4667 LP  0  0  0  0  0  0  0  0  0  0  0  0  # atno 13521 bound_to 9019
  121.9227  240.8094  322.0705 LP  0  0  0  0  0  0  0  0  0  0  0  0  # atno 13522 bound_to 9062
  121.8585  240.3853  324.9354 LP  0  0  0  0  0  0  0  0  0  0  0  0  # atno 13523 bound_to 9100
  112.3577  243.7013  317.3817 LP  0  0  0  0  0  0  0  0  0  0  0  0  # atno 13528 bound_to 8426
  111.8455  245.3368  317.1317 LP  0  0  0  0  0  0  0  0  0  0  0  0  # atno 13529 bound_to 8426
  115.2428  239.8218  316.2261 LP  0  0  0  0  0  0  0  0  0  0  0  0  # atno 13530 bound_to 8363
  114.8625  239.6519  317.9073 LP  0  0  0  0  0  0  0  0  0  0  0  0  # atno 13531 bound_to 8363
  110.3592  247.2890  318.1256 LP  0  0  0  0  0  0  0  0  0  0  0  0  # atno 13532 bound_to 8476
  114.2753  239.1877  321.3282 LP  0  0  0  0  0  0  0  0  0  0  0  0  # atno 13533 bound_to 9073
  114.0384  239.7382  322.8473 LP  0  0  0  0  0  0  0  0  0  0  0  0  # atno 13534 bound_to 9073
  114.6175  248.4678  315.7219 LP  0  0  0  0  0  0  0  0  0  0  0  0  # atno 13535 bound_to 8937
  118.9653  244.1791  313.9053 LP  0  0  0  0  0  0  0  0  0  0  0  0  # atno 13536 bound_to 8977
  120.0679  244.8356  314.9152 LP  0  0  0  0  0  0  0  0  0  0  0  0  # atno 13537 bound_to 8977
  124.3527  245.8307  317.6800 LP  0  0  0  0  0  0  0  0  0  0  0  0  # atno 13538 bound_to 4885
  124.4920  247.2283  318.5130 LP  0  0  0  0  0  0  0  0  0  0  0  0  # atno 13539 bound_to 4885
  108.1724  244.3525  319.1459 LP  0  0  0  0  0  0  0  0  0  0  0  0  # atno 13540 bound_to 5565
  110.9567  244.1298  315.6820 LP  0  0  0  0  0  0  0  0  0  0  0  0  # atno 13541 bound_to 5598
  110.4444  239.0034  318.6385 LP  0  0  0  0  0  0  0  0  0  0  0  0  # atno 13542 bound_to 5639
  111.6020  239.8225  317.6440 LP  0  0  0  0  0  0  0  0  0  0  0  0  # atno 13543 bound_to 5639
  111.3403  238.1959  321.7987 LP  0  0  0  0  0  0  0  0  0  0  0  0  # atno 13544 bound_to 8319
  110.5714  238.8801  320.5310 LP  0  0  0  0  0  0  0  0  0  0  0  0  # atno 13545 bound_to 8319
  113.5278  237.3265  328.9705 LP  0  0  0  0  0  0  0  0  0  0  0  0  # atno 13548 bound_to 9180
  113.4238  238.8331  328.1224 LP  0  0  0  0  0  0  0  0  0  0  0  0  # atno 13549 bound_to 9180
  111.8859  240.9236  315.2693 LP  0  0  0  0  0  0  0  0  0  0  0  0  # atno 13552 bound_to 5636

> <Gold.Score>
     Fitness  S(hb_ext) S(vdw_ext)  S(hb_int)    S(int)      intcor
     38.56       4.95      35.86       0.00     -15.69      -0.77

> <Gold.Goldscore.Fitness>
38.5643

> <Gold.Goldscore.Internal.Vdw>
-14.4453

> <Gold.Goldscore.Internal.Torsion>
-2.0116

> <Gold.Goldscore.External.Vdw>
35.8586

> <Gold.Goldscore.Internal.HBond>
0.0000

> <Gold.Goldscore.External.HBond>
4.9503

> <Gold.Goldscore.Internal.Correction>
-0.7653

> <Gold.Goldscore.Hbonds>
donor molecule, donor type, donor heavy atom, donor atom, acceptor molecule, acceptor atom, score
      L1  H     8    22       P1  8992  0.83

> <Gold.Goldscore.Internal.Vdw.Weighted>
-14.4453

> <Gold.Goldscore.Internal.Torsion.Weighted>
-2.0116

> <Gold.Goldscore.External.Vdw.Weighted>
49.3056

> <Gold.Goldscore.Internal.HBond.Weighted>
0.0000

> <Gold.Goldscore.External.HBond.Weighted>
4.9503

> <Gold.Goldscore.Internal.Correction.Weighted>
-0.7653

> <Gold.Rescore>
     Score     S(PLP)   S(hbond)     S(cho)   S(metal)  DE(clash)   DE(tors)     intcor
     15.60     -26.17       0.77       0.00       0.00      10.23       1.32       ----

> <Gold.PLP.Fitness>
15.5968

> <Gold.PLP.PLP>
-26.1713

> <Gold.PLP.part.hbond>
-4.0000

> <Gold.PLP.part.metal>
0.0000

> <Gold.PLP.part.buried>
26.4877

> <Gold.PLP.part.nonpolar>
-51.7462

> <Gold.PLP.part.repulsive>
0.6044

> <Gold.PLP.ligand.clash>
10.2307

> <Gold.PLP.ligand.torsion>
1.3238

> <Gold.PLP.Chemscore.Hbond>
0.7680

> <Gold.PLP.Chemscore.CHOScore>
0.0000

> <Gold.PLP.Chemscore.Metal>
0.0000

> <Gold.Chemscore.Hbonds>
donor molecule, donor type, donor heavy atom, donor atom, acceptor molecule, acceptor atom, score
      L1  H     8    22       P1  8992  1.00
      P1  M 13327 13327       L1    11  0.54

> <Gold.PLP.Chemscore.Internal.Correction>
   9.000000E+99

