#       Name:                CT1002167954
#       Creating user name   hitesit
#       Creation time:       Sun Apr 16 22:52:05 2023


#       File generated by GOLD software.
#

@<TRIPOS>MOLECULE
CT1002167954|ligand_prepared|mol2|1|dock4
    29    30     1
SMALL
NO_CHARGES


@<TRIPOS>ATOM
      1 C1         111.9615 242.2134 325.6873 C.3            1 RES1               0.0000
      2 C2         111.7757 243.6006 325.0392 C.ar           1 RES1               0.0000
      3 C3         110.5597 241.6535 325.9102 C.2            1 RES1               0.0000
      4 C4         112.8096 241.3991 324.7166 C.2            1 RES1               0.0000
      5 C5         112.6968 242.2526 327.0472 C.3            1 RES1               0.0000
      6 C6         112.8167 244.5242 325.0313 C.ar           1 RES1               0.0000
      7 C7         110.5723 243.9693 324.4439 C.ar           1 RES1               0.0000
      8 N8         110.1401 240.6532 325.0836 N.am           1 RES1               0.0000
      9 O9         109.8191 242.1096 326.7726 O.2            1 RES1               0.0000
     10 N10        112.2326 240.3102 324.1173 N.am           1 RES1               0.0000
     11 O11        113.9671 241.7003 324.4526 O.2            1 RES1               0.0000
     12 C12        112.6749 240.9285 327.7945 C.3            1 RES1               0.0000
     13 C13        112.6612 245.7702 324.4469 C.ar           1 RES1               0.0000
     14 C14        110.4188 245.2161 323.8603 C.ar           1 RES1               0.0000
     15 C15        110.9267 239.9183 324.2334 C.2            1 RES1               0.0000
     16 C16        111.4626 246.1169 323.8607 C.ar           1 RES1               0.0000
     17 O17        110.4674 238.9594 323.6198 O.2            1 RES1               0.0000
     18 H18        113.7403 242.5443 326.8761 H              1 RES1               0.0000
     19 H19        112.2328 243.0213 327.6775 H              1 RES1               0.0000
     20 H20        113.7665 244.2701 325.4899 H              1 RES1               0.0000
     21 H21        109.7371 243.2772 324.4328 H              1 RES1               0.0000
     22 H22        109.1497 240.4311 325.0990 H              1 RES1               0.0000
     23 H23        112.8320 239.7388 323.5305 H              1 RES1               0.0000
     24 H24        113.2043 241.0111 328.7413 H              1 RES1               0.0000
     25 H25        111.6526 240.6204 328.0036 H              1 RES1               0.0000
     26 H26        113.1512 240.1462 327.2070 H              1 RES1               0.0000
     27 H27        113.4853 246.4761 324.4511 H              1 RES1               0.0000
     28 H28        109.4735 245.4849 323.4007 H              1 RES1               0.0000
     29 H29        111.3412 247.0929 323.4027 H              1 RES1               0.0000
@<TRIPOS>BOND
    1    1    2 1     
    2    1    3 1     
    3    1    4 1     
    4    1    5 1     
    5    2    6 ar    
    6    2    7 ar    
    7    3    8 1     
    8    3    9 2     
    9    4   10 1     
   10    4   11 2     
   11    5   12 1     
   12    5   18 1     
   13    5   19 1     
   14    6   13 ar    
   15    6   20 1     
   16    7   14 ar    
   17    7   21 1     
   18    8   15 1     
   19    8   22 1     
   20   10   15 1     
   21   10   23 1     
   22   12   24 1     
   23   12   25 1     
   24   12   26 1     
   25   13   16 ar    
   26   13   27 1     
   27   14   16 ar    
   28   14   28 1     
   29   15   17 2     
   30   16   29 1     
@<TRIPOS>SUBSTRUCTURE
      1 RES1           1
@<TRIPOS>SET
DONOR_HYDROGENS      STATIC     ATOMS    <user>   **** ""
2 22 23
ATOM$RED        STATIC     ATOMS    COLORGROUP SYSTEM
2 22 23
@<TRIPOS>COMMENT
> <Gold.Version>
2022.3.0

> <Gold.Id.Protein>
unknown|4uch_clean|pdb

> <Gold.Protein.RotatedTorsions>
[ 1282 1268 1269 1270 ] final  137.55 input   42.93 | X-H torsion
[ 12864 12852 12853 12854 ] final  128.00 input  102.46 | X-H torsion
[ 12872 12863 12862 12860 ] final  158.61 input   59.97 | X-H torsion
[ 12900 12891 12892 12893 ] final -115.96 input   33.49 | X-H torsion
[ 12960 12952 12953 12954 ] final   -5.88 input  127.22 | X-H torsion
[ 13446 13426 13425 13421 ] final   81.71 input   59.98 | X-H torsion
[ 1244 1232 1233 1234 ] final  -30.01 input  119.89 | X-H torsion
[ 5550 5545 5544 5541 ] final   -1.86 input   60.01 | X-H torsion
[ 3548 3542 3543 3544 ] final -114.32 input   78.91 | X-H torsion
[ 3570 3563 3564 3565 ] final  -72.31 input  104.01 | X-H torsion
[ 3596 3592 3593 3594 ] final  174.56 input   81.17 | X-H torsion
[ 8428 8423 8424 8425 ] final   -3.71 input   41.93 | X-H torsion
[ 8452 8445 8446 8447 ] final -129.05 input   98.48 | X-H torsion
[ 8978 8972 8973 8974 ] final  -83.85 input   32.89 | X-H torsion
[ 8996 8992 8993 8994 ] final  149.48 input   45.98 | X-H torsion
[ 9030 9016 9017 9018 ] final  -44.67 input   38.77 | X-H torsion
[ 9074 9062 9063 9064 ] final   10.56 input   99.93 | X-H torsion
[ 9108 9100 9101 9102 ] final  133.51 input   97.82 | X-H torsion
[ 8482 8476 8477 8478 ] final -170.82 input   55.16 | X-H torsion
[ 9082 9073 9072 9070 ] final -162.71 input   60.02 | X-H torsion
[ 8948 8937 8938 8939 ] final  -83.75 input   49.52 | X-H torsion
[ 8982 8977 8976 8973 ] final  -68.85 input   60.00 | X-H torsion
[ 4890 4885 4884 4881 ] final   28.68 input   59.99 | X-H torsion
[ 5574 5565 5566 5567 ] final  175.93 input   50.85 | X-H torsion
[ 5606 5598 5599 5600 ] final -136.24 input  117.92 | X-H torsion
[ 8328 8319 8318 8316 ] final  126.46 input   59.98 | X-H torsion
[ 5644 5636 5637 5638 ] final   86.40 input   69.86 | X-H torsion
[ 13451 13428 13427 13425 ] final  114.44 input   60.01 | X-H torsion
[ 8508 8500 8501 8502 ] final  -84.55 input   75.08 | X-H torsion
[ 4906 4901 4902 4903 ] final  151.49 input   29.84 | X-H torsion
[ 13460 1235 1234 1233 ] final  -91.80 input    0.00 | X-H torsion
[ 13464 8503 8502 8501 ] final  -60.14 input    0.00 | X-H torsion
[ 13466 12822 12821 12820 ] final  -24.09 input   -0.00 | X-H torsion
[ 13469 12855 12854 12853 ] final   25.86 input   -0.00 | X-H torsion
[ 13474 12894 12893 12892 ] final   93.65 input    0.00 | X-H torsion
[ 13493 5543 5542 5541 ] final  168.35 input    0.00 | X-H torsion
[ 13497 3502 3501 3500 ] final   79.80 input   -0.00 | X-H torsion
[ 13500 3545 3544 3543 ] final -149.86 input    0.00 | X-H torsion
[ 13505 8400 8399 8398 ] final   93.67 input   -0.00 | X-H torsion
[ 13509 8448 8447 8446 ] final    8.60 input    0.00 | X-H torsion
[ 13511 8940 8939 8938 ] final   82.09 input    0.00 | X-H torsion
[ 13514 8975 8974 8973 ] final -105.04 input   -0.00 | X-H torsion
[ 13517 8995 8994 8993 ] final  -27.04 input    0.00 | X-H torsion
[ 13520 9019 9018 9017 ] final -114.28 input   -0.00 | X-H torsion
[ 13528 8426 8425 8424 ] final  151.33 input    0.00 | X-H torsion
[ 13530 8363 8362 8361 ] final  -55.51 input    0.00 | X-H torsion
[ 13542 5639 5638 5637 ] final  -76.46 input    0.00 | X-H torsion
[ 13548 9180 9179 9178 ] final   62.17 input   -0.00 | X-H torsion

> <Gold.Protein.ActiveResidues>
 TRP311  MET341  HIS342  TRP414  ALA417  ARG419  CYS420  VAL421  GLY422  ARG423 
 SER462  ALA463  SER482  GLN483  LEU484  ILE485  ARG486  TRP566  TYR567  LEU569 
 PRO570  ALA571  VAL572  SER573  ASN574  MET575  PHE589  SER590  GLY591  TRP592 
 TYR593  MET594  GLU597  ILE598  ARG601  ASP602  ARG608  TRP683  PHE696  GLU710 
 TYR711  GLN712  PRO713  ASP714  HEM750  H4B760 

> <Gold.Protein.RotatedAtoms>
  107.2019  254.3430  335.1075 H   0  0  0  0  0  0  0  0  0  0  0  0  # atno 1244 bound_to 1232
  106.0122  254.0470  332.0634 H   0  0  0  0  0  0  0  0  0  0  0  0  # atno 1282 bound_to 1268
  118.5118  251.2713  328.8141 H   0  0  0  0  0  0  0  0  0  0  0  0  # atno 3548 bound_to 3542
  121.5418  249.9027  328.1233 H   0  0  0  0  0  0  0  0  0  0  0  0  # atno 3570 bound_to 3563
  123.0769  247.5796  327.2466 H   0  0  0  0  0  0  0  0  0  0  0  0  # atno 3596 bound_to 3592
  125.0863  245.8369  317.4137 H   0  0  0  0  0  0  0  0  0  0  0  0  # atno 4890 bound_to 4885
  122.6073  246.7222  313.9735 H   0  0  0  0  0  0  0  0  0  0  0  0  # atno 4906 bound_to 4901
  106.5714  243.7386  319.7728 H   0  0  0  0  0  0  0  0  0  0  0  0  # atno 5550 bound_to 5545
  108.2445  244.6150  319.1019 H   0  0  0  0  0  0  0  0  0  0  0  0  # atno 5574 bound_to 5565
  110.0900  244.0995  315.7097 H   0  0  0  0  0  0  0  0  0  0  0  0  # atno 5606 bound_to 5598
  111.8485  240.9379  315.4379 H   0  0  0  0  0  0  0  0  0  0  0  0  # atno 5644 bound_to 5636
  112.1270  238.9470  321.5630 H   0  0  0  0  0  0  0  0  0  0  0  0  # atno 8328 bound_to 8319
  114.4165  242.9546  318.8695 H   0  0  0  0  0  0  0  0  0  0  0  0  # atno 8428 bound_to 8423
  113.8815  245.2006  318.5133 H   0  0  0  0  0  0  0  0  0  0  0  0  # atno 8452 bound_to 8445
  111.7999  247.2307  317.3855 H   0  0  0  0  0  0  0  0  0  0  0  0  # atno 8482 bound_to 8476
  109.3197  249.6736  316.9777 H   0  0  0  0  0  0  0  0  0  0  0  0  # atno 8508 bound_to 8500
  114.8882  248.7217  314.5423 H   0  0  0  0  0  0  0  0  0  0  0  0  # atno 8948 bound_to 8937
  117.8744  247.9057  316.8773 H   0  0  0  0  0  0  0  0  0  0  0  0  # atno 8978 bound_to 8972
  118.9420  245.7421  314.0622 H   0  0  0  0  0  0  0  0  0  0  0  0  # atno 8982 bound_to 8977
  119.6033  245.7898  318.4567 H   0  0  0  0  0  0  0  0  0  0  0  0  # atno 8996 bound_to 8992
  121.2661  243.4249  320.3436 H   0  0  0  0  0  0  0  0  0  0  0  0  # atno 9030 bound_to 9016
  122.3398  240.0113  322.1007 H   0  0  0  0  0  0  0  0  0  0  0  0  # atno 9074 bound_to 9062
  114.1078  238.2414  321.7194 H   0  0  0  0  0  0  0  0  0  0  0  0  # atno 9082 bound_to 9073
  121.0438  241.3199  325.4823 H   0  0  0  0  0  0  0  0  0  0  0  0  # atno 9108 bound_to 9100
  109.3327  256.6549  324.6998 H   0  0  0  0  0  0  0  0  0  0  0  0  # atno 12864 bound_to 12852
  111.1920  252.5177  328.5509 H   0  0  0  0  0  0  0  0  0  0  0  0  # atno 12872 bound_to 12863
  106.2288  256.1140  322.9365 H   0  0  0  0  0  0  0  0  0  0  0  0  # atno 12900 bound_to 12891
  100.3970  253.4841  320.6183 H   0  0  0  0  0  0  0  0  0  0  0  0  # atno 12960 bound_to 12952
  109.1382  246.4119  337.3029 H   0  0  0  0  0  0  0  0  0  0  0  0  # atno 13446 bound_to 13426
  108.7168  250.7548  336.6669 H   0  0  0  0  0  0  0  0  0  0  0  0  # atno 13451 bound_to 13428
  109.0889  254.7303  331.8450 LP  0  0  0  0  0  0  0  0  0  0  0  0  # atno 13460 bound_to 1235
  108.2422  253.6839  330.7550 LP  0  0  0  0  0  0  0  0  0  0  0  0  # atno 13461 bound_to 1235
  106.6783  255.0025  333.3722 LP  0  0  0  0  0  0  0  0  0  0  0  0  # atno 13462 bound_to 1268
  106.3982  252.7626  318.5743 LP  0  0  0  0  0  0  0  0  0  0  0  0  # atno 13464 bound_to 8503
  107.1448  252.8138  320.1364 LP  0  0  0  0  0  0  0  0  0  0  0  0  # atno 13465 bound_to 8503
  110.2144  256.5434  320.8890 LP  0  0  0  0  0  0  0  0  0  0  0  0  # atno 13466 bound_to 12822
  109.4367  255.2172  321.6868 LP  0  0  0  0  0  0  0  0  0  0  0  0  # atno 13467 bound_to 12822
  109.3924  257.0226  322.9950 LP  0  0  0  0  0  0  0  0  0  0  0  0  # atno 13468 bound_to 12852
  107.5187  258.1637  322.8843 LP  0  0  0  0  0  0  0  0  0  0  0  0  # atno 13469 bound_to 12855
  105.8166  258.0914  322.5720 LP  0  0  0  0  0  0  0  0  0  0  0  0  # atno 13470 bound_to 12855
  111.2181  251.3881  327.3799 LP  0  0  0  0  0  0  0  0  0  0  0  0  # atno 13471 bound_to 12863
  110.0777  251.3319  328.5474 LP  0  0  0  0  0  0  0  0  0  0  0  0  # atno 13472 bound_to 12863
  106.2384  254.7734  321.8159 LP  0  0  0  0  0  0  0  0  0  0  0  0  # atno 13473 bound_to 12891
  103.4927  253.9527  322.9255 LP  0  0  0  0  0  0  0  0  0  0  0  0  # atno 13474 bound_to 12894
  103.8699  253.4140  321.3231 LP  0  0  0  0  0  0  0  0  0  0  0  0  # atno 13475 bound_to 12894
  101.2713  252.3877  321.6624 LP  0  0  0  0  0  0  0  0  0  0  0  0  # atno 13476 bound_to 12952
  109.0865  245.8205  335.7880 LP  0  0  0  0  0  0  0  0  0  0  0  0  # atno 13490 bound_to 13426
  107.7384  246.4358  336.4740 LP  0  0  0  0  0  0  0  0  0  0  0  0  # atno 13491 bound_to 13426
  106.4909  252.7809  335.4510 LP  0  0  0  0  0  0  0  0  0  0  0  0  # atno 13492 bound_to 1232
  110.0074  245.8470  318.9459 LP  0  0  0  0  0  0  0  0  0  0  0  0  # atno 13493 bound_to 5543
  108.9062  247.1776  319.0750 LP  0  0  0  0  0  0  0  0  0  0  0  0  # atno 13494 bound_to 5543
  105.3380  243.9357  320.8163 LP  0  0  0  0  0  0  0  0  0  0  0  0  # atno 13495 bound_to 5545
  106.8789  244.1155  321.3260 LP  0  0  0  0  0  0  0  0  0  0  0  0  # atno 13496 bound_to 5545
  117.3832  249.5488  329.0940 LP  0  0  0  0  0  0  0  0  0  0  0  0  # atno 13497 bound_to 3502
  118.7828  249.5152  330.1139 LP  0  0  0  0  0  0  0  0  0  0  0  0  # atno 13498 bound_to 3502
  119.6895  252.4361  328.2634 LP  0  0  0  0  0  0  0  0  0  0  0  0  # atno 13499 bound_to 3542
  123.2279  250.8196  327.9462 LP  0  0  0  0  0  0  0  0  0  0  0  0  # atno 13500 bound_to 3545
  121.9995  252.0311  328.0988 LP  0  0  0  0  0  0  0  0  0  0  0  0  # atno 13501 bound_to 3545
  120.8231  248.3458  328.4819 LP  0  0  0  0  0  0  0  0  0  0  0  0  # atno 13502 bound_to 3563
  123.5543  249.2465  327.0319 LP  0  0  0  0  0  0  0  0  0  0  0  0  # atno 13503 bound_to 3592
  117.7880  243.5045  317.6061 LP  0  0  0  0  0  0  0  0  0  0  0  0  # atno 13505 bound_to 8400
  117.4777  244.1450  319.1851 LP  0  0  0  0  0  0  0  0  0  0  0  0  # atno 13506 bound_to 8400
  115.7984  242.4802  317.9158 LP  0  0  0  0  0  0  0  0  0  0  0  0  # atno 13507 bound_to 8423
  114.6427  246.6284  317.8519 LP  0  0  0  0  0  0  0  0  0  0  0  0  # atno 13508 bound_to 8445
  113.9949  248.5220  317.1866 LP  0  0  0  0  0  0  0  0  0  0  0  0  # atno 13509 bound_to 8448
  112.6278  249.2504  316.4117 LP  0  0  0  0  0  0  0  0  0  0  0  0  # atno 13510 bound_to 8448
  115.3606  246.5720  316.4965 LP  0  0  0  0  0  0  0  0  0  0  0  0  # atno 13511 bound_to 8940
  115.9892  247.2217  317.9739 LP  0  0  0  0  0  0  0  0  0  0  0  0  # atno 13512 bound_to 8940
  118.2223  247.3750  315.2498 LP  0  0  0  0  0  0  0  0  0  0  0  0  # atno 13513 bound_to 8972
  121.4410  246.1130  316.0924 LP  0  0  0  0  0  0  0  0  0  0  0  0  # atno 13514 bound_to 8975
  120.8017  247.4838  316.9362 LP  0  0  0  0  0  0  0  0  0  0  0  0  # atno 13515 bound_to 8975
  119.7121  244.2685  317.6026 LP  0  0  0  0  0  0  0  0  0  0  0  0  # atno 13516 bound_to 8992
  120.8282  242.7397  317.2205 LP  0  0  0  0  0  0  0  0  0  0  0  0  # atno 13517 bound_to 8995
  121.9865  241.6388  317.8885 LP  0  0  0  0  0  0  0  0  0  0  0  0  # atno 13518 bound_to 8995
  122.8340  243.2840  319.5878 LP  0  0  0  0  0  0  0  0  0  0  0  0  # atno 13519 bound_to 9016
  122.1365  242.2745  323.3993 LP  0  0  0  0  0  0  0  0  0  0  0  0  # atno 13520 bound_to 9019
  120.8617  242.9345  322.4301 LP  0  0  0  0  0  0  0  0  0  0  0  0  # atno 13521 bound_to 9019
  120.7696  240.2108  321.3609 LP  0  0  0  0  0  0  0  0  0  0  0  0  # atno 13522 bound_to 9062
  121.0726  239.6337  325.0251 LP  0  0  0  0  0  0  0  0  0  0  0  0  # atno 13523 bound_to 9100
  111.7739  244.9017  317.9611 LP  0  0  0  0  0  0  0  0  0  0  0  0  # atno 13528 bound_to 8426
  112.4293  244.1363  316.5523 LP  0  0  0  0  0  0  0  0  0  0  0  0  # atno 13529 bound_to 8426
  115.2357  239.9449  316.2462 LP  0  0  0  0  0  0  0  0  0  0  0  0  # atno 13530 bound_to 8363
  114.8696  239.5288  317.8872 LP  0  0  0  0  0  0  0  0  0  0  0  0  # atno 13531 bound_to 8363
  110.5060  247.8663  318.3708 LP  0  0  0  0  0  0  0  0  0  0  0  0  # atno 13532 bound_to 8476
  114.2451  239.8588  321.8340 LP  0  0  0  0  0  0  0  0  0  0  0  0  # atno 13533 bound_to 9073
  113.9017  238.9697  323.1600 LP  0  0  0  0  0  0  0  0  0  0  0  0  # atno 13534 bound_to 9073
  114.6734  249.6520  316.0077 LP  0  0  0  0  0  0  0  0  0  0  0  0  # atno 13535 bound_to 8937
  119.0374  244.1208  313.9601 LP  0  0  0  0  0  0  0  0  0  0  0  0  # atno 13536 bound_to 8977
  120.0662  244.9428  314.9257 LP  0  0  0  0  0  0  0  0  0  0  0  0  # atno 13537 bound_to 8977
  124.0050  246.6453  318.3217 LP  0  0  0  0  0  0  0  0  0  0  0  0  # atno 13538 bound_to 4885
  125.5195  247.2277  318.1384 LP  0  0  0  0  0  0  0  0  0  0  0  0  # atno 13539 bound_to 4885
  107.5231  244.1429  317.5817 LP  0  0  0  0  0  0  0  0  0  0  0  0  # atno 13540 bound_to 5565
  111.0521  242.7445  316.2486 LP  0  0  0  0  0  0  0  0  0  0  0  0  # atno 13541 bound_to 5598
  111.5574  238.7337  318.0853 LP  0  0  0  0  0  0  0  0  0  0  0  0  # atno 13542 bound_to 5639
  110.4890  240.0923  318.1972 LP  0  0  0  0  0  0  0  0  0  0  0  0  # atno 13543 bound_to 5639
  110.7098  238.1679  321.3797 LP  0  0  0  0  0  0  0  0  0  0  0  0  # atno 13544 bound_to 8319
  111.1081  239.3913  320.3741 LP  0  0  0  0  0  0  0  0  0  0  0  0  # atno 13545 bound_to 8319
  113.3999  238.7399  327.9910 LP  0  0  0  0  0  0  0  0  0  0  0  0  # atno 13548 bound_to 9180
  113.5517  237.4197  329.1019 LP  0  0  0  0  0  0  0  0  0  0  0  0  # atno 13549 bound_to 9180
  110.2955  241.0416  314.6391 LP  0  0  0  0  0  0  0  0  0  0  0  0  # atno 13552 bound_to 5636

> <Gold.Score>
     Fitness  S(hb_ext) S(vdw_ext)  S(hb_int)    S(int)      intcor
     36.65       4.71      24.06       0.00      -1.14      -0.77

> <Gold.Goldscore.Fitness>
36.6505

> <Gold.Goldscore.Internal.Vdw>
-1.3838

> <Gold.Goldscore.Internal.Torsion>
-0.5218

> <Gold.Goldscore.External.Vdw>
24.0597

> <Gold.Goldscore.Internal.HBond>
0.0000

> <Gold.Goldscore.External.HBond>
4.7086

> <Gold.Goldscore.Internal.Correction>
-0.7653

> <Gold.Goldscore.Hbonds>
donor molecule, donor type, donor heavy atom, donor atom, acceptor molecule, acceptor atom, score
      P1  H  9513  9527       L1    17  0.48
      L1  H    10    23       P1  9073  0.92

> <Gold.Goldscore.Internal.Vdw.Weighted>
-1.3838

> <Gold.Goldscore.Internal.Torsion.Weighted>
-0.5218

> <Gold.Goldscore.External.Vdw.Weighted>
33.0821

> <Gold.Goldscore.Internal.HBond.Weighted>
0.0000

> <Gold.Goldscore.External.HBond.Weighted>
4.7086

> <Gold.Goldscore.Internal.Correction.Weighted>
-0.7653

> <Gold.Rescore>
     Score     S(PLP)   S(hbond)     S(cho)   S(metal)  DE(clash)   DE(tors)     intcor
     11.22     -10.89       0.89       0.00       0.00       0.00       1.17       ----

> <Gold.PLP.Fitness>
11.2244

> <Gold.PLP.PLP>
-10.8862

> <Gold.PLP.part.hbond>
-5.8082

> <Gold.PLP.part.metal>
0.0000

> <Gold.PLP.part.buried>
10.4646

> <Gold.PLP.part.nonpolar>
-19.8464

> <Gold.PLP.part.repulsive>
4.8575

> <Gold.PLP.ligand.clash>
0.0000

> <Gold.PLP.ligand.torsion>
1.1715

> <Gold.PLP.Chemscore.Hbond>
0.8938

> <Gold.PLP.Chemscore.CHOScore>
0.0000

> <Gold.PLP.Chemscore.Metal>
0.0000

> <Gold.Chemscore.Hbonds>
donor molecule, donor type, donor heavy atom, donor atom, acceptor molecule, acceptor atom, score
      L1  H    10    23       P1  9073  0.91
      P1  H  9513  9527       L1    17  0.18

> <Gold.PLP.Chemscore.Internal.Correction>
   9.000000E+99

