CT1002167954


 29 30  0  0  0  0  0  0  0  0999 V2000
   -0.0184    1.5028    0.0103 C   0  0  0  0  0
    0.0021   -0.0041    0.0020 C   0  0  0  0  0
    1.4167    1.9944   -0.0008 C   0  0  0  0  0
   -0.8957    1.9693   -1.1360 C   0  0  0  0  0
   -0.6680    1.9596    1.3180 C   0  0  0  0  0
    0.6000   -0.6815   -1.0442 C   0  0  0  0  0
   -0.5722   -0.7088    1.0434 C   0  0  0  0  0
    1.7931    2.7981   -1.0180 N   0  0  0  0  0
    2.1965    1.6776    0.8718 O   0  0  0  0  0
   -0.3352    2.7749   -2.0628 N   0  0  0  0  0
   -2.0570    1.6307   -1.2169 O   0  0  0  0  0
   -0.7061    3.4885    1.3617 C   0  0  0  0  0
    0.6187   -2.0636   -1.0518 C   0  0  0  0  0
   -0.5534   -2.0910    1.0358 C   0  0  0  0  0
    0.9446    3.1575   -1.9879 C   0  0  0  0  0
    0.0399   -2.7685   -0.0130 C   0  0  0  0  0
    1.3673    3.8841   -2.8651 O   0  0  0  0  0
   -1.6841    1.5691    1.3748 H   0  0  0  0  0
   -0.0876    1.5864    2.1618 H   0  0  0  0  0
    1.0523   -0.1308   -1.8557 H   0  0  0  0  0
   -1.0352   -0.1796    1.8631 H   0  0  0  0  0
    2.7060    3.1249   -1.0463 H   0  0  0  0  0
   -0.8766    3.0860   -2.8051 H   0  0  0  0  0
   -1.1690    3.8140    2.2933 H   0  0  0  0  0
    0.3099    3.8790    1.3049 H   0  0  0  0  0
   -1.2865    3.8617    0.5179 H   0  0  0  0  0
    1.0853   -2.5929   -1.8695 H   0  0  0  0  0
   -1.0018   -2.6416    1.8496 H   0  0  0  0  0
    0.0542   -3.8484   -0.0191 H   0  0  0  0  0
  1  2  1  0  0  0  0
  1  3  1  0  0  0  0
  1  4  1  0  0  0  0
  1  5  1  0  0  0  0
  2  6  1  0  0  0  0
  2  7  2  0  0  0  0
  3  8  1  0  0  0  0
  3  9  2  0  0  0  0
  4 10  1  0  0  0  0
  4 11  2  0  0  0  0
  5 12  1  0  0  0  0
  5 18  1  0  0  0  0
  5 19  1  0  0  0  0
  6 13  2  0  0  0  0
  6 20  1  0  0  0  0
  7 14  1  0  0  0  0
  7 21  1  0  0  0  0
  8 15  1  0  0  0  0
  8 22  1  0  0  0  0
 10 15  1  0  0  0  0
 10 23  1  0  0  0  0
 12 24  1  0  0  0  0
 12 25  1  0  0  0  0
 12 26  1  0  0  0  0
 13 16  1  0  0  0  0
 13 27  1  0  0  0  0
 14 16  2  0  0  0  0
 14 28  1  0  0  0  0
 15 17  2  0  0  0  0
 16 29  1  0  0  0  0
M  END
$$$$
