@<TRIPOS>MOLECULE
5ovf
    29    32     1     0     0
SMALL
NO_CHARGES
****
Generated from the CSD

@<TRIPOS>ATOM
     1 C1      19.8380 -29.5540  46.4690   C.ar      1 RES1   0.0000
     2 O2      18.5270 -29.1770  46.6560   O.3       1 RES1   0.0000
     3 C3      17.5050 -29.7370  45.8240   C.3       1 RES1   0.0000
     4 C4      20.2670 -30.3640  45.4030   C.ar      1 RES1   0.0000
     5 C5      21.6210 -30.7240  45.2520   C.ar      1 RES1   0.0000
     6 C6      22.1100 -31.5430  44.2090   C.ar      1 RES1   0.0000
     7 N7      23.4380 -31.8140  44.1700   N.ar      1 RES1   0.0000
     8 C8      24.2960 -31.3370  45.0950   C.ar      1 RES1   0.0000
     9 N9      23.8480 -30.5640  46.0940   N.ar      1 RES1   0.0000
    10 C10     22.5440 -30.2470  46.1970   C.ar      1 RES1   0.0000
    11 C11     22.1220 -29.4480  47.2580   C.ar      1 RES1   0.0000
    12 C12     20.7760 -29.0910  47.3970   C.ar      1 RES1   0.0000
    13 O13     20.3600 -28.3080  48.4440   O.3       1 RES1   0.0000
    14 C14     21.3240 -27.3230  48.8520   C.3       1 RES1   0.0000
    15 C15     25.7880 -31.6680  45.0140   C.3       1 RES1   0.0000
    16 N16     21.3080 -32.0310  43.2420   N.2       1 RES1   0.0000
    17 C17     21.6650 -33.0970  42.2810   C.3       1 RES1   0.0000
    18 C18     21.0440 -34.3990  42.7970   C.ar      1 RES1   0.0000
    19 C19     21.8560 -35.2970  43.4900   C.ar      1 RES1   0.0000
    20 C20     21.3220 -36.4930  43.9910   C.ar      1 RES1   0.0000
    21 C21     22.1430 -37.3880  44.6900   C.ar      1 RES1   0.0000
    22 C22     21.7710 -38.2480  45.6360   C.ar      1 RES1   0.0000
    23 N23     22.8670 -38.8820  46.0460   N.ar      1 RES1   0.0000
    24 N24     23.8510 -38.4650  45.4310   N.ar      1 RES1   0.0000
    25 C25     23.4620 -37.5280  44.5710   C.ar      1 RES1   0.0000
    26 C26     19.9590 -36.7660  43.8030   C.ar      1 RES1   0.0000
    27 C27     19.1480 -35.8610  43.1210   C.ar      1 RES1   0.0000
    28 C28     19.6840 -34.6800  42.6250   C.ar      1 RES1   0.0000
    29 C29     21.1700 -32.7040  40.8680   C.3       1 RES1   0.0000
@<TRIPOS>BOND
     1     1     2    1
     2     2     3    1
     3     1     4   ar
     4     4     5   ar
     5     5     6   ar
     6     5    10   ar
     7     6     7   ar
     8     6    16    1
     9     7     8   ar
    10     8     9   ar
    11     8    15    1
    12     9    10   ar
    13    10    11   ar
    14    11    12   ar
    15     1    12   ar
    16    12    13    1
    17    13    14    1
    18    16    17    1
    19    17    18    1
    20    17    29    1
    21    18    19   ar
    22    18    28   ar
    23    19    20   ar
    24    20    21    1
    25    21    22   ar
    26    21    25   ar
    27    22    23   ar
    28    23    24   ar
    29    24    25   ar
    30    20    26   ar
    31    26    27   ar
    32    27    28   ar
@<TRIPOS>SUBSTRUCTURE
     1 RES1        1 GROUP             0 ****  ****    0  
