#       Name:                CT1002167954
#       Creating user name   hitesit
#       Creation time:       Sun Apr 16 22:51:10 2023


#       File generated by GOLD software.
#

@<TRIPOS>MOLECULE
CT1002167954|ligand_prepared|mol2|1|dock6
    29    30     1
SMALL
NO_CHARGES


@<TRIPOS>ATOM
      1 C1         117.4086 246.4144 358.2684 C.3            1 RES1               0.0000
      2 C2         118.9355 246.2250 358.3752 C.ar           1 RES1               0.0000
      3 C3         116.8808 245.2108 357.4931 C.2            1 RES1               0.0000
      4 C4         116.8895 246.5093 359.6989 C.2            1 RES1               0.0000
      5 C5         116.9894 247.7020 357.5216 C.3            1 RES1               0.0000
      6 C6         119.7294 246.2112 357.2323 C.ar           1 RES1               0.0000
      7 C7         119.5638 246.0659 359.6075 C.ar           1 RES1               0.0000
      8 N8         116.2065 244.2543 358.1935 N.am           1 RES1               0.0000
      9 O9         117.0873 245.0835 356.2926 O.2            1 RES1               0.0000
     10 N10        116.0692 245.5095 360.1519 N.am           1 RES1               0.0000
     11 O11        117.1968 247.4323 360.4431 O.2            1 RES1               0.0000
     12 C12        117.8490 248.9113 357.8545 C.3            1 RES1               0.0000
     13 C13        121.1020 246.0472 357.3183 C.ar           1 RES1               0.0000
     14 C14        120.9366 245.9018 359.6912 C.ar           1 RES1               0.0000
     15 C15        115.7290 244.3706 359.4741 C.2            1 RES1               0.0000
     16 C16        121.7065 245.8929 358.5476 C.ar           1 RES1               0.0000
     17 O17        115.0304 243.4906 359.9690 O.2            1 RES1               0.0000
     18 H18        117.0430 247.5172 356.4416 H              1 RES1               0.0000
     19 H19        115.9460 247.9311 357.7712 H              1 RES1               0.0000
     20 H20        119.2712 246.3287 356.2559 H              1 RES1               0.0000
     21 H21        118.9779 246.0686 360.5203 H              1 RES1               0.0000
     22 H22        116.0421 243.3710 357.7213 H              1 RES1               0.0000
     23 H23        115.6757 245.6249 361.0804 H              1 RES1               0.0000
     24 H24        117.5123 249.7872 357.3039 H              1 RES1               0.0000
     25 H25        117.7993 249.1392 358.9172 H              1 RES1               0.0000
     26 H26        118.8897 248.7277 357.5955 H              1 RES1               0.0000
     27 H27        121.7034 246.0395 356.4152 H              1 RES1               0.0000
     28 H28        121.4080 245.7801 360.6608 H              1 RES1               0.0000
     29 H29        122.7819 245.7648 358.6148 H              1 RES1               0.0000
@<TRIPOS>BOND
    1    1    2 1     
    2    1    3 1     
    3    1    4 1     
    4    1    5 1     
    5    2    6 ar    
    6    2    7 ar    
    7    3    8 1     
    8    3    9 2     
    9    4   10 1     
   10    4   11 2     
   11    5   12 1     
   12    5   18 1     
   13    5   19 1     
   14    6   13 ar    
   15    6   20 1     
   16    7   14 ar    
   17    7   21 1     
   18    8   15 1     
   19    8   22 1     
   20   10   15 1     
   21   10   23 1     
   22   12   24 1     
   23   12   25 1     
   24   12   26 1     
   25   13   16 ar    
   26   13   27 1     
   27   14   16 ar    
   28   14   28 1     
   29   15   17 2     
   30   16   29 1     
@<TRIPOS>SUBSTRUCTURE
      1 RES1           1
@<TRIPOS>SET
DONOR_HYDROGENS      STATIC     ATOMS    <user>   **** ""
2 22 23
ATOM$RED        STATIC     ATOMS    COLORGROUP SYSTEM
2 22 23
@<TRIPOS>COMMENT
> <Gold.Version>
2022.3.0

> <Gold.Id.Protein>
unknown|4uh5_clean|pdb

> <Gold.Protein.RotatedTorsions>
[ 9150 9120 9119 9117 ] final   36.50 input   60.01 | X-H torsion
[ 9046 9030 9029 9026 ] final    0.58 input   59.99 | X-H torsion
[ 8396 8366 8365 8363 ] final   32.24 input   60.01 | X-H torsion

> <Gold.Protein.ActiveResidues>
 MET341  TRP414  CYS420  VAL421  GLY422  LEU429  LEU460  SER462  ALA463  ILE464 
 SER482  GLN483  LEU484  ILE485  ARG486  TYR487  ASP500  ALA502  ASN503  TRP566 
 TYR567  LEU569  PRO570  ALA571  VAL572  SER573  ASN574  PRO588  PHE589  SER590 
 GLY591  TRP592  TYR593  MET594  GLY595  THR596  GLU597  ILE598  ARG601  ASP602 
 ASP605  ARG608  ILE653  VAL654  TRP683  PRO687  SER691  PHE696  HIS697  TYR711 
 HEM750  H4B760 

> <Gold.Protein.RotatedAtoms>
  125.4724  243.1152  360.3981 H   0  0  0  0  0  0  0  0  0  0  0  0  # atno 8396 bound_to 8366
  114.8083  245.5266  366.1286 H   0  0  0  0  0  0  0  0  0  0  0  0  # atno 9046 bound_to 9030
  122.7955  242.3016  358.6583 H   0  0  0  0  0  0  0  0  0  0  0  0  # atno 9150 bound_to 9120
  123.6499  240.9374  358.4201 LP  0  0  0  0  0  0  0  0  0  0  0  0  # atno 13532 bound_to 9120
  123.1287  241.3267  359.9179 LP  0  0  0  0  0  0  0  0  0  0  0  0  # atno 13533 bound_to 9120
  115.9005  245.6317  367.3303 LP  0  0  0  0  0  0  0  0  0  0  0  0  # atno 13546 bound_to 9030
  115.6192  244.1975  366.6019 LP  0  0  0  0  0  0  0  0  0  0  0  0  # atno 13547 bound_to 9030
  125.9132  242.0049  359.2934 LP  0  0  0  0  0  0  0  0  0  0  0  0  # atno 13558 bound_to 8366
  127.0197  242.6172  360.3265 LP  0  0  0  0  0  0  0  0  0  0  0  0  # atno 13559 bound_to 8366

> <Gold.Score>
     Fitness  S(hb_ext) S(vdw_ext)  S(hb_int)    S(int)      intcor
     48.51       0.00      38.63       0.00      -4.60      -0.76

> <Gold.Goldscore.Fitness>
48.5111

> <Gold.Goldscore.Internal.Vdw>
-4.4227

> <Gold.Goldscore.Internal.Torsion>
-0.9427

> <Gold.Goldscore.External.Vdw>
38.6266

> <Gold.Goldscore.Internal.HBond>
0.0000

> <Gold.Goldscore.External.HBond>
0.0000

> <Gold.Goldscore.Internal.Correction>
-0.7650

> <Gold.Goldscore.Internal.Vdw.Weighted>
-4.4227

> <Gold.Goldscore.Internal.Torsion.Weighted>
-0.9427

> <Gold.Goldscore.External.Vdw.Weighted>
53.1116

> <Gold.Goldscore.Internal.HBond.Weighted>
0.0000

> <Gold.Goldscore.External.HBond.Weighted>
0.0000

> <Gold.Goldscore.Internal.Correction.Weighted>
-0.7650

> <Gold.Rescore>
     Score     S(PLP)   S(hbond)     S(cho)   S(metal)  DE(clash)   DE(tors)     intcor
     43.05     -44.77       0.00       0.00       0.00       0.88       0.42       ----

> <Gold.PLP.Fitness>
43.0483

> <Gold.PLP.PLP>
-44.7697

> <Gold.PLP.part.hbond>
-3.5347

> <Gold.PLP.part.metal>
0.0000

> <Gold.PLP.part.buried>
7.4014

> <Gold.PLP.part.nonpolar>
-54.3307

> <Gold.PLP.part.repulsive>
3.3492

> <Gold.PLP.ligand.clash>
0.8755

> <Gold.PLP.ligand.torsion>
0.4229

> <Gold.PLP.Chemscore.Hbond>
0.0000

> <Gold.PLP.Chemscore.CHOScore>
0.0000

> <Gold.PLP.Chemscore.Metal>
0.0000

> <Gold.PLP.Chemscore.Internal.Correction>
   9.000000E+99

#       Name:                CT1002167954
#       Creating user name   hitesit
#       Creation time:       Sun Apr 16 22:51:07 2023


#       File generated by GOLD software.
#

@<TRIPOS>MOLECULE
CT1002167954|ligand_prepared|mol2|1|dock2
    29    30     1
SMALL
NO_CHARGES


@<TRIPOS>ATOM
      1 C1         120.7793 245.7130 357.8048 C.3            1 RES1               0.0000
      2 C2         119.3267 245.2009 357.8851 C.ar           1 RES1               0.0000
      3 C3         121.3200 245.6935 359.2315 C.2            1 RES1               0.0000
      4 C4         121.5100 244.7757 356.8497 C.2            1 RES1               0.0000
      5 C5         120.9049 247.1517 357.2516 C.3            1 RES1               0.0000
      6 C6         119.0388 243.8532 357.6912 C.ar           1 RES1               0.0000
      7 C7         118.2663 246.0620 358.1544 C.ar           1 RES1               0.0000
      8 N8         122.2150 244.7165 359.5547 N.am           1 RES1               0.0000
      9 O9         120.9370 246.4988 360.0711 O.2            1 RES1               0.0000
     10 N10        122.5127 243.9932 357.3596 N.am           1 RES1               0.0000
     11 O11        121.2153 244.6955 355.6635 O.2            1 RES1               0.0000
     12 C12        122.3350 247.5687 356.9467 C.3            1 RES1               0.0000
     13 C13        117.7383 243.3829 357.7667 C.ar           1 RES1               0.0000
     14 C14        116.9664 245.5896 358.2293 C.ar           1 RES1               0.0000
     15 C15        122.8777 243.8988 358.6750 C.2            1 RES1               0.0000
     16 C16        116.7014 244.2505 358.0362 C.ar           1 RES1               0.0000
     17 O17        123.7531 243.1313 359.0645 O.2            1 RES1               0.0000
     18 H18        120.3108 247.2298 356.3327 H              1 RES1               0.0000
     19 H19        120.4821 247.8500 357.9845 H              1 RES1               0.0000
     20 H20        119.8415 243.1559 357.4757 H              1 RES1               0.0000
     21 H21        118.4511 247.1197 358.3087 H              1 RES1               0.0000
     22 H22        122.4095 244.5814 360.5417 H              1 RES1               0.0000
     23 H23        123.0355 243.4290 356.6974 H              1 RES1               0.0000
     24 H24        122.3665 248.5858 356.5616 H              1 RES1               0.0000
     25 H25        122.9486 247.5271 357.8443 H              1 RES1               0.0000
     26 H26        122.7783 246.9106 356.2023 H              1 RES1               0.0000
     27 H27        117.5348 242.3283 357.6127 H              1 RES1               0.0000
     28 H28        116.1534 246.2762 358.4410 H              1 RES1               0.0000
     29 H29        115.6827 243.8817 358.0957 H              1 RES1               0.0000
@<TRIPOS>BOND
    1    1    2 1     
    2    1    3 1     
    3    1    4 1     
    4    1    5 1     
    5    2    6 ar    
    6    2    7 ar    
    7    3    8 1     
    8    3    9 2     
    9    4   10 1     
   10    4   11 2     
   11    5   12 1     
   12    5   18 1     
   13    5   19 1     
   14    6   13 ar    
   15    6   20 1     
   16    7   14 ar    
   17    7   21 1     
   18    8   15 1     
   19    8   22 1     
   20   10   15 1     
   21   10   23 1     
   22   12   24 1     
   23   12   25 1     
   24   12   26 1     
   25   13   16 ar    
   26   13   27 1     
   27   14   16 ar    
   28   14   28 1     
   29   15   17 2     
   30   16   29 1     
@<TRIPOS>SUBSTRUCTURE
      1 RES1           1
@<TRIPOS>SET
DONOR_HYDROGENS      STATIC     ATOMS    <user>   **** ""
2 22 23
ATOM$RED        STATIC     ATOMS    COLORGROUP SYSTEM
2 22 23
@<TRIPOS>COMMENT
> <Gold.Version>
2022.3.0

> <Gold.Id.Protein>
unknown|4uh5_clean|pdb

> <Gold.Protein.RotatedTorsions>
[ 9150 9120 9119 9117 ] final -138.01 input   60.01 | X-H torsion
[ 9046 9030 9029 9026 ] final   24.49 input   59.99 | X-H torsion
[ 8396 8366 8365 8363 ] final   -8.72 input   60.01 | X-H torsion

> <Gold.Protein.ActiveResidues>
 MET341  TRP414  CYS420  VAL421  GLY422  LEU429  LEU460  SER462  ALA463  ILE464 
 SER482  GLN483  LEU484  ILE485  ARG486  TYR487  ASP500  ALA502  ASN503  TRP566 
 TYR567  LEU569  PRO570  ALA571  VAL572  SER573  ASN574  PRO588  PHE589  SER590 
 GLY591  TRP592  TYR593  MET594  GLY595  THR596  GLU597  ILE598  ARG601  ASP602 
 ASP605  ARG608  ILE653  VAL654  TRP683  PRO687  SER691  PHE696  HIS697  TYR711 
 HEM750  H4B760 

> <Gold.Protein.RotatedAtoms>
  125.2185  242.7540  359.9144 H   0  0  0  0  0  0  0  0  0  0  0  0  # atno 8396 bound_to 8366
  114.7974  245.1584  366.0070 H   0  0  0  0  0  0  0  0  0  0  0  0  # atno 9046 bound_to 9030
  123.6096  240.7266  359.2533 H   0  0  0  0  0  0  0  0  0  0  0  0  # atno 9150 bound_to 9120
  122.7528  242.0539  359.6431 LP  0  0  0  0  0  0  0  0  0  0  0  0  # atno 13532 bound_to 9120
  123.2059  241.7964  358.0955 LP  0  0  0  0  0  0  0  0  0  0  0  0  # atno 13533 bound_to 9120
  115.6697  245.8993  367.1638 LP  0  0  0  0  0  0  0  0  0  0  0  0  # atno 13546 bound_to 9030
  115.8610  244.3007  366.8908 LP  0  0  0  0  0  0  0  0  0  0  0  0  # atno 13547 bound_to 9030
  126.5544  241.9554  359.4404 LP  0  0  0  0  0  0  0  0  0  0  0  0  # atno 13558 bound_to 8366
  126.6343  243.0307  360.6667 LP  0  0  0  0  0  0  0  0  0  0  0  0  # atno 13559 bound_to 8366

> <Gold.Score>
     Fitness  S(hb_ext) S(vdw_ext)  S(hb_int)    S(int)      intcor
     41.68       2.00      29.31       0.00      -0.62      -0.80

> <Gold.Goldscore.Fitness>
41.6785

> <Gold.Goldscore.Internal.Vdw>
-0.8963

> <Gold.Goldscore.Internal.Torsion>
-0.5217

> <Gold.Goldscore.External.Vdw>
29.3060

> <Gold.Goldscore.Internal.HBond>
0.0000

> <Gold.Goldscore.External.HBond>
2.0000

> <Gold.Goldscore.Internal.Correction>
-0.8007

> <Gold.Goldscore.Hbonds>
donor molecule, donor type, donor heavy atom, donor atom, acceptor molecule, acceptor atom, score
      P1  H  8366  8396       L1    17  1.00

> <Gold.Goldscore.Internal.Vdw.Weighted>
-0.8963

> <Gold.Goldscore.Internal.Torsion.Weighted>
-0.5217

> <Gold.Goldscore.External.Vdw.Weighted>
40.2958

> <Gold.Goldscore.Internal.HBond.Weighted>
0.0000

> <Gold.Goldscore.External.HBond.Weighted>
2.0000

> <Gold.Goldscore.Internal.Correction.Weighted>
-0.8007

> <Gold.Rescore>
     Score     S(PLP)   S(hbond)     S(cho)   S(metal)  DE(clash)   DE(tors)     intcor
     29.31     -27.76       1.36       0.00       0.00       1.58       0.47       ----

> <Gold.PLP.Fitness>
29.3079

> <Gold.PLP.PLP>
-27.7592

> <Gold.PLP.part.hbond>
-3.9940

> <Gold.PLP.part.metal>
0.0000

> <Gold.PLP.part.buried>
11.8174

> <Gold.PLP.part.nonpolar>
-44.5447

> <Gold.PLP.part.repulsive>
6.1067

> <Gold.PLP.ligand.clash>
1.5770

> <Gold.PLP.ligand.torsion>
0.4715

> <Gold.PLP.Chemscore.Hbond>
1.3563

> <Gold.PLP.Chemscore.CHOScore>
0.0000

> <Gold.PLP.Chemscore.Metal>
0.0000

> <Gold.Chemscore.Hbonds>
donor molecule, donor type, donor heavy atom, donor atom, acceptor molecule, acceptor atom, score
      P1  H  8366  8396       L1    17  1.00

> <Gold.PLP.Chemscore.Internal.Correction>
   9.000000E+99

#       Name:                CT1002167954
#       Creating user name   hitesit
#       Creation time:       Sun Apr 16 22:51:09 2023


#       File generated by GOLD software.
#

@<TRIPOS>MOLECULE
CT1002167954|ligand_prepared|mol2|1|dock4
    29    30     1
SMALL
NO_CHARGES


@<TRIPOS>ATOM
      1 C1         123.5238 244.5590 356.0404 C.3            1 RES1               0.0000
      2 C2         122.6121 244.9133 357.2329 C.ar           1 RES1               0.0000
      3 C3         124.2229 245.8537 355.6361 C.2            1 RES1               0.0000
      4 C4         124.4691 243.4698 356.5350 C.2            1 RES1               0.0000
      5 C5         122.7612 244.0085 354.8128 C.3            1 RES1               0.0000
      6 C6         121.2931 245.3053 357.0245 C.ar           1 RES1               0.0000
      7 C7         123.0741 244.8505 358.5448 C.ar           1 RES1               0.0000
      8 N8         125.5419 245.9861 355.9563 N.am           1 RES1               0.0000
      9 O9         123.6161 246.7607 355.0799 O.2            1 RES1               0.0000
     10 N10        125.8043 243.7668 356.6165 N.am           1 RES1               0.0000
     11 O11        124.0676 242.3623 356.8706 O.2            1 RES1               0.0000
     12 C12        123.6594 243.3496 353.7779 C.3            1 RES1               0.0000
     13 C13        120.4651 245.6202 358.0892 C.ar           1 RES1               0.0000
     14 C14        122.2445 245.1660 359.6081 C.ar           1 RES1               0.0000
     15 C15        126.3796 244.9854 356.3788 C.2            1 RES1               0.0000
     16 C16        120.9400 245.5504 359.3816 C.ar           1 RES1               0.0000
     17 O17        127.5812 245.1891 356.5265 O.2            1 RES1               0.0000
     18 H18        122.0214 243.2751 355.1565 H              1 RES1               0.0000
     19 H19        122.2185 244.8336 354.3351 H              1 RES1               0.0000
     20 H20        120.9025 245.3685 356.0143 H              1 RES1               0.0000
     21 H21        124.0971 244.5516 358.7468 H              1 RES1               0.0000
     22 H22        125.9425 246.9151 355.8741 H              1 RES1               0.0000
     23 H23        126.4272 243.0094 356.8786 H              1 RES1               0.0000
     24 H24        123.0743 242.9809 352.9380 H              1 RES1               0.0000
     25 H25        124.3918 244.0577 353.3958 H              1 RES1               0.0000
     26 H26        124.1958 242.5085 354.2123 H              1 RES1               0.0000
     27 H27        119.4397 245.9235 357.9055 H              1 RES1               0.0000
     28 H28        122.6226 245.1102 360.6235 H              1 RES1               0.0000
     29 H29        120.2910 245.7967 360.2155 H              1 RES1               0.0000
@<TRIPOS>BOND
    1    1    2 1     
    2    1    3 1     
    3    1    4 1     
    4    1    5 1     
    5    2    6 ar    
    6    2    7 ar    
    7    3    8 1     
    8    3    9 2     
    9    4   10 1     
   10    4   11 2     
   11    5   12 1     
   12    5   18 1     
   13    5   19 1     
   14    6   13 ar    
   15    6   20 1     
   16    7   14 ar    
   17    7   21 1     
   18    8   15 1     
   19    8   22 1     
   20   10   15 1     
   21   10   23 1     
   22   12   24 1     
   23   12   25 1     
   24   12   26 1     
   25   13   16 ar    
   26   13   27 1     
   27   14   16 ar    
   28   14   28 1     
   29   15   17 2     
   30   16   29 1     
@<TRIPOS>SUBSTRUCTURE
      1 RES1           1
@<TRIPOS>SET
DONOR_HYDROGENS      STATIC     ATOMS    <user>   **** ""
2 22 23
ATOM$RED        STATIC     ATOMS    COLORGROUP SYSTEM
2 22 23
@<TRIPOS>COMMENT
> <Gold.Version>
2022.3.0

> <Gold.Id.Protein>
unknown|4uh5_clean|pdb

> <Gold.Protein.RotatedTorsions>
[ 9150 9120 9119 9117 ] final  -17.54 input   60.01 | X-H torsion
[ 9046 9030 9029 9026 ] final   96.56 input   59.99 | X-H torsion
[ 8396 8366 8365 8363 ] final  -51.61 input   60.01 | X-H torsion

> <Gold.Protein.ActiveResidues>
 MET341  TRP414  CYS420  VAL421  GLY422  LEU429  LEU460  SER462  ALA463  ILE464 
 SER482  GLN483  LEU484  ILE485  ARG486  TYR487  ASP500  ALA502  ASN503  TRP566 
 TYR567  LEU569  PRO570  ALA571  VAL572  SER573  ASN574  PRO588  PHE589  SER590 
 GLY591  TRP592  TYR593  MET594  GLY595  THR596  GLU597  ILE598  ARG601  ASP602 
 ASP605  ARG608  ILE653  VAL654  TRP683  PRO687  SER691  PHE696  HIS697  TYR711 
 HEM750  H4B760 

> <Gold.Protein.RotatedAtoms>
  125.4318  242.2879  359.4611 H   0  0  0  0  0  0  0  0  0  0  0  0  # atno 8396 bound_to 8366
  115.3484  244.2597  366.3269 H   0  0  0  0  0  0  0  0  0  0  0  0  # atno 9046 bound_to 9030
  123.1998  241.7996  358.1034 H   0  0  0  0  0  0  0  0  0  0  0  0  # atno 9150 bound_to 9120
  123.6167  240.7209  359.2482 LP  0  0  0  0  0  0  0  0  0  0  0  0  # atno 13532 bound_to 9120
  122.7548  242.0488  359.6486 LP  0  0  0  0  0  0  0  0  0  0  0  0  # atno 13533 bound_to 9120
  114.9232  245.8303  366.3464 LP  0  0  0  0  0  0  0  0  0  0  0  0  # atno 13546 bound_to 9030
  116.0528  245.2744  367.3863 LP  0  0  0  0  0  0  0  0  0  0  0  0  # atno 13547 bound_to 9030
  127.0007  242.2302  359.8882 LP  0  0  0  0  0  0  0  0  0  0  0  0  # atno 13558 bound_to 8366
  125.9731  243.2254  360.6757 LP  0  0  0  0  0  0  0  0  0  0  0  0  # atno 13559 bound_to 8366

> <Gold.Score>
     Fitness  S(hb_ext) S(vdw_ext)  S(hb_int)    S(int)      intcor
     39.54       1.11      28.39       0.00      -0.61      -0.76

> <Gold.Goldscore.Fitness>
39.5412

> <Gold.Goldscore.Internal.Vdw>
-0.7079

> <Gold.Goldscore.Internal.Torsion>
-0.6649

> <Gold.Goldscore.External.Vdw>
28.3918

> <Gold.Goldscore.Internal.HBond>
0.0000

> <Gold.Goldscore.External.HBond>
1.1103

> <Gold.Goldscore.Internal.Correction>
-0.7650

> <Gold.Goldscore.Hbonds>
donor molecule, donor type, donor heavy atom, donor atom, acceptor molecule, acceptor atom, score
      P1  H  9120  9150       L1    11  0.41
      P1  H  8366  8396       L1    11  0.14

> <Gold.Goldscore.Internal.Vdw.Weighted>
-0.7079

> <Gold.Goldscore.Internal.Torsion.Weighted>
-0.6649

> <Gold.Goldscore.External.Vdw.Weighted>
39.0387

> <Gold.Goldscore.Internal.HBond.Weighted>
0.0000

> <Gold.Goldscore.External.HBond.Weighted>
1.1103

> <Gold.Goldscore.Internal.Correction.Weighted>
-0.7650

> <Gold.Rescore>
     Score     S(PLP)   S(hbond)     S(cho)   S(metal)  DE(clash)   DE(tors)     intcor
     30.41     -29.56       1.16       0.00       0.00       0.00       1.32       ----

> <Gold.PLP.Fitness>
30.4089

> <Gold.PLP.PLP>
-29.5558

> <Gold.PLP.part.hbond>
-5.7953

> <Gold.PLP.part.metal>
0.0000

> <Gold.PLP.part.buried>
1.9313

> <Gold.PLP.part.nonpolar>
-29.7903

> <Gold.PLP.part.repulsive>
2.4985

> <Gold.PLP.ligand.clash>
0.0000

> <Gold.PLP.ligand.torsion>
1.3168

> <Gold.PLP.Chemscore.Hbond>
1.1622

> <Gold.PLP.Chemscore.CHOScore>
0.0000

> <Gold.PLP.Chemscore.Metal>
0.0000

> <Gold.Chemscore.Hbonds>
donor molecule, donor type, donor heavy atom, donor atom, acceptor molecule, acceptor atom, score
      P1  H  9120  9150       L1    11  1.00

> <Gold.PLP.Chemscore.Internal.Correction>
   9.000000E+99

#       Name:                CT1002167954
#       Creating user name   hitesit
#       Creation time:       Sun Apr 16 22:51:08 2023


#       File generated by GOLD software.
#

@<TRIPOS>MOLECULE
CT1002167954|ligand_prepared|mol2|1|dock3
    29    30     1
SMALL
NO_CHARGES


@<TRIPOS>ATOM
      1 C1         124.1796 244.1796 356.9723 C.3            1 RES1               0.0000
      2 C2         122.8265 244.6685 357.5281 C.ar           1 RES1               0.0000
      3 C3         123.9227 242.8011 356.3706 C.2            1 RES1               0.0000
      4 C4         124.6282 245.2269 355.9592 C.2            1 RES1               0.0000
      5 C5         125.2853 244.0487 358.0456 C.3            1 RES1               0.0000
      6 C6         121.7200 244.7909 356.6930 C.ar           1 RES1               0.0000
      7 C7         122.6690 244.9979 358.8717 C.ar           1 RES1               0.0000
      8 N8         123.8993 242.6997 355.0108 N.am           1 RES1               0.0000
      9 O9         123.7046 241.8255 357.0783 O.2            1 RES1               0.0000
     10 N10        124.7031 244.8556 354.6423 N.am           1 RES1               0.0000
     11 O11        124.9014 246.3750 356.2871 O.2            1 RES1               0.0000
     12 C12        126.6120 243.5437 357.5006 C.3            1 RES1               0.0000
     13 C13        120.4994 245.2239 357.1839 C.ar           1 RES1               0.0000
     14 C14        121.4474 245.4309 359.3605 C.ar           1 RES1               0.0000
     15 C15        124.3295 243.6482 354.1180 C.2            1 RES1               0.0000
     16 C16        120.3621 245.5437 358.5178 C.ar           1 RES1               0.0000
     17 O17        124.3745 243.4076 352.9150 O.2            1 RES1               0.0000
     18 H18        125.4447 245.0298 358.5098 H              1 RES1               0.0000
     19 H19        124.9395 243.3604 358.8267 H              1 RES1               0.0000
     20 H20        121.8095 244.5461 355.6399 H              1 RES1               0.0000
     21 H21        123.5093 244.9178 359.5529 H              1 RES1               0.0000
     22 H22        123.5276 241.8391 354.6217 H              1 RES1               0.0000
     23 H23        125.0716 245.5430 353.9926 H              1 RES1               0.0000
     24 H24        127.3523 243.4704 358.2945 H              1 RES1               0.0000
     25 H25        126.4956 242.5585 357.0538 H              1 RES1               0.0000
     26 H26        126.9978 244.2180 356.7388 H              1 RES1               0.0000
     27 H27        119.6486 245.3123 356.5163 H              1 RES1               0.0000
     28 H28        121.3442 245.6822 360.4109 H              1 RES1               0.0000
     29 H29        119.4057 245.8825 358.9022 H              1 RES1               0.0000
@<TRIPOS>BOND
    1    1    2 1     
    2    1    3 1     
    3    1    4 1     
    4    1    5 1     
    5    2    6 ar    
    6    2    7 ar    
    7    3    8 1     
    8    3    9 2     
    9    4   10 1     
   10    4   11 2     
   11    5   12 1     
   12    5   18 1     
   13    5   19 1     
   14    6   13 ar    
   15    6   20 1     
   16    7   14 ar    
   17    7   21 1     
   18    8   15 1     
   19    8   22 1     
   20   10   15 1     
   21   10   23 1     
   22   12   24 1     
   23   12   25 1     
   24   12   26 1     
   25   13   16 ar    
   26   13   27 1     
   27   14   16 ar    
   28   14   28 1     
   29   15   17 2     
   30   16   29 1     
@<TRIPOS>SUBSTRUCTURE
      1 RES1           1
@<TRIPOS>SET
DONOR_HYDROGENS      STATIC     ATOMS    <user>   **** ""
2 22 23
ATOM$RED        STATIC     ATOMS    COLORGROUP SYSTEM
2 22 23
@<TRIPOS>COMMENT
> <Gold.Version>
2022.3.0

> <Gold.Id.Protein>
unknown|4uh5_clean|pdb

> <Gold.Protein.RotatedTorsions>
[ 9150 9120 9119 9117 ] final -148.15 input   60.01 | X-H torsion
[ 9046 9030 9029 9026 ] final  163.89 input   59.99 | X-H torsion
[ 8396 8366 8365 8363 ] final  124.81 input   60.01 | X-H torsion

> <Gold.Protein.ActiveResidues>
 MET341  TRP414  CYS420  VAL421  GLY422  LEU429  LEU460  SER462  ALA463  ILE464 
 SER482  GLN483  LEU484  ILE485  ARG486  TYR487  ASP500  ALA502  ASN503  TRP566 
 TYR567  LEU569  PRO570  ALA571  VAL572  SER573  ASN574  PRO588  PHE589  SER590 
 GLY591  TRP592  TYR593  MET594  GLY595  THR596  GLU597  ILE598  ARG601  ASP602 
 ASP605  ARG608  ILE653  VAL654  TRP683  PRO687  SER691  PHE696  HIS697  TYR711 
 HEM750  H4B760 

> <Gold.Protein.RotatedAtoms>
  126.7964  242.9059  360.5819 H   0  0  0  0  0  0  0  0  0  0  0  0  # atno 8396 bound_to 8366
  116.0040  244.4942  367.0968 H   0  0  0  0  0  0  0  0  0  0  0  0  # atno 9046 bound_to 9030
  123.5573  240.7651  359.4056 H   0  0  0  0  0  0  0  0  0  0  0  0  # atno 9150 bound_to 9120
  122.7181  242.1549  359.5151 LP  0  0  0  0  0  0  0  0  0  0  0  0  # atno 13532 bound_to 9120
  123.2933  241.6567  358.0702 LP  0  0  0  0  0  0  0  0  0  0  0  0  # atno 13533 bound_to 9120
  114.8644  244.8492  365.9907 LP  0  0  0  0  0  0  0  0  0  0  0  0  # atno 13546 bound_to 9030
  115.4516  246.0193  366.9668 LP  0  0  0  0  0  0  0  0  0  0  0  0  # atno 13547 bound_to 9030
  125.2485  242.8973  360.0805 LP  0  0  0  0  0  0  0  0  0  0  0  0  # atno 13558 bound_to 8366
  126.3506  241.9358  359.3541 LP  0  0  0  0  0  0  0  0  0  0  0  0  # atno 13559 bound_to 8366

> <Gold.Score>
     Fitness  S(hb_ext) S(vdw_ext)  S(hb_int)    S(int)      intcor
     37.72       0.48      27.11       0.00      -0.04      -0.76

> <Gold.Goldscore.Fitness>
37.7181

> <Gold.Goldscore.Internal.Vdw>
-0.4330

> <Gold.Goldscore.Internal.Torsion>
-0.3691

> <Gold.Goldscore.External.Vdw>
27.1103

> <Gold.Goldscore.Internal.HBond>
0.0000

> <Gold.Goldscore.External.HBond>
0.4786

> <Gold.Goldscore.Internal.Correction>
-0.7650

> <Gold.Goldscore.Hbonds>
donor molecule, donor type, donor heavy atom, donor atom, acceptor molecule, acceptor atom, score
      L1  H     8    22       P1  9230  0.24

> <Gold.Goldscore.Internal.Vdw.Weighted>
-0.4330

> <Gold.Goldscore.Internal.Torsion.Weighted>
-0.3691

> <Gold.Goldscore.External.Vdw.Weighted>
37.2767

> <Gold.Goldscore.Internal.HBond.Weighted>
0.0000

> <Gold.Goldscore.External.HBond.Weighted>
0.4786

> <Gold.Goldscore.Internal.Correction.Weighted>
-0.7650

> <Gold.Rescore>
     Score     S(PLP)   S(hbond)     S(cho)   S(metal)  DE(clash)   DE(tors)     intcor
     32.86     -33.60       0.00       0.00       0.00       0.00       0.37       ----

> <Gold.PLP.Fitness>
32.8626

> <Gold.PLP.PLP>
-33.5951

> <Gold.PLP.part.hbond>
-2.7633

> <Gold.PLP.part.metal>
0.0000

> <Gold.PLP.part.buried>
-4.4932

> <Gold.PLP.part.nonpolar>
-27.9610

> <Gold.PLP.part.repulsive>
1.2143

> <Gold.PLP.ligand.clash>
0.0000

> <Gold.PLP.ligand.torsion>
0.3663

> <Gold.PLP.Chemscore.Hbond>
0.0000

> <Gold.PLP.Chemscore.CHOScore>
0.0000

> <Gold.PLP.Chemscore.Metal>
0.0000

> <Gold.Chemscore.Hbonds>
donor molecule, donor type, donor heavy atom, donor atom, acceptor molecule, acceptor atom, score
      L1  H     8    22       P1  9230  0.58

> <Gold.PLP.Chemscore.Internal.Correction>
   9.000000E+99

#       Name:                CT1002167954
#       Creating user name   hitesit
#       Creation time:       Sun Apr 16 22:51:11 2023


#       File generated by GOLD software.
#

@<TRIPOS>MOLECULE
CT1002167954|ligand_prepared|mol2|1|dock7
    29    30     1
SMALL
NO_CHARGES


@<TRIPOS>ATOM
      1 C1         123.1098 244.4069 356.0875 C.3            1 RES1               0.0000
      2 C2         122.1948 244.9463 357.2058 C.ar           1 RES1               0.0000
      3 C3         124.2518 245.4091 355.9476 C.2            1 RES1               0.0000
      4 C4         123.5525 243.0172 356.5317 C.2            1 RES1               0.0000
      5 C5         122.4067 244.2690 354.7170 C.3            1 RES1               0.0000
      6 C6         122.4463 244.6355 358.5388 C.ar           1 RES1               0.0000
      7 C7         121.0990 245.7566 356.9207 C.ar           1 RES1               0.0000
      8 N8         125.4741 245.0456 356.4311 N.am           1 RES1               0.0000
      9 O9         124.0734 246.5168 355.4563 O.2            1 RES1               0.0000
     10 N10        124.8812 242.8233 356.8049 N.am           1 RES1               0.0000
     11 O11        122.7600 242.0925 356.6636 O.2            1 RES1               0.0000
     12 C12        123.2128 243.4896 353.6900 C.3            1 RES1               0.0000
     13 C13        121.6336 245.1196 359.5505 C.ar           1 RES1               0.0000
     14 C14        120.2873 246.2394 357.9340 C.ar           1 RES1               0.0000
     15 C15        125.8571 243.7824 356.8044 C.2            1 RES1               0.0000
     16 C16        120.5539 245.9221 359.2489 C.ar           1 RES1               0.0000
     17 O17        127.0204 243.5419 357.1145 O.2            1 RES1               0.0000
     18 H18        121.4423 243.7671 354.8638 H              1 RES1               0.0000
     19 H19        122.2057 245.2720 354.3207 H              1 RES1               0.0000
     20 H20        123.2899 244.0033 358.7952 H              1 RES1               0.0000
     21 H21        120.8694 246.0183 355.8934 H              1 RES1               0.0000
     22 H22        126.1675 245.7811 356.5238 H              1 RES1               0.0000
     23 H23        125.1696 241.8763 357.0293 H              1 RES1               0.0000
     24 H24        122.6742 243.4225 352.7470 H              1 RES1               0.0000
     25 H25        124.1682 243.9745 353.5008 H              1 RES1               0.0000
     26 H26        123.4094 242.4785 354.0406 H              1 RES1               0.0000
     27 H27        121.8469 244.8658 360.5836 H              1 RES1               0.0000
     28 H28        119.4384 246.8702 357.6919 H              1 RES1               0.0000
     29 H29        119.9177 246.3015 360.0416 H              1 RES1               0.0000
@<TRIPOS>BOND
    1    1    2 1     
    2    1    3 1     
    3    1    4 1     
    4    1    5 1     
    5    2    6 ar    
    6    2    7 ar    
    7    3    8 1     
    8    3    9 2     
    9    4   10 1     
   10    4   11 2     
   11    5   12 1     
   12    5   18 1     
   13    5   19 1     
   14    6   13 ar    
   15    6   20 1     
   16    7   14 ar    
   17    7   21 1     
   18    8   15 1     
   19    8   22 1     
   20   10   15 1     
   21   10   23 1     
   22   12   24 1     
   23   12   25 1     
   24   12   26 1     
   25   13   16 ar    
   26   13   27 1     
   27   14   16 ar    
   28   14   28 1     
   29   15   17 2     
   30   16   29 1     
@<TRIPOS>SUBSTRUCTURE
      1 RES1           1
@<TRIPOS>SET
DONOR_HYDROGENS      STATIC     ATOMS    <user>   **** ""
2 22 23
ATOM$RED        STATIC     ATOMS    COLORGROUP SYSTEM
2 22 23
@<TRIPOS>COMMENT
> <Gold.Version>
2022.3.0

> <Gold.Id.Protein>
unknown|4uh5_clean|pdb

> <Gold.Protein.RotatedTorsions>
[ 9150 9120 9119 9117 ] final -102.15 input   60.01 | X-H torsion
[ 9046 9030 9029 9026 ] final   21.73 input   59.99 | X-H torsion
[ 8396 8366 8365 8363 ] final  -31.66 input   60.01 | X-H torsion

> <Gold.Protein.ActiveResidues>
 MET341  TRP414  CYS420  VAL421  GLY422  LEU429  LEU460  SER462  ALA463  ILE464 
 SER482  GLN483  LEU484  ILE485  ARG486  TYR487  ASP500  ALA502  ASN503  TRP566 
 TYR567  LEU569  PRO570  ALA571  VAL572  SER573  ASN574  PRO588  PHE589  SER590 
 GLY591  TRP592  TYR593  MET594  GLY595  THR596  GLU597  ILE598  ARG601  ASP602 
 ASP605  ARG608  ILE653  VAL654  TRP683  PRO687  SER691  PHE696  HIS697  TYR711 
 HEM750  H4B760 

> <Gold.Protein.RotatedAtoms>
  125.2730  242.5000  359.6479 H   0  0  0  0  0  0  0  0  0  0  0  0  # atno 8396 bound_to 8366
  114.7928  245.2025  366.0153 H   0  0  0  0  0  0  0  0  0  0  0  0  # atno 9046 bound_to 9030
  123.6821  240.7911  358.6852 H   0  0  0  0  0  0  0  0  0  0  0  0  # atno 9150 bound_to 9120
  122.9740  241.5902  359.9132 LP  0  0  0  0  0  0  0  0  0  0  0  0  # atno 13532 bound_to 9120
  122.9117  242.1952  358.3977 LP  0  0  0  0  0  0  0  0  0  0  0  0  # atno 13533 bound_to 9120
  115.6992  245.8745  367.1880 LP  0  0  0  0  0  0  0  0  0  0  0  0  # atno 13546 bound_to 9030
  115.8361  244.2810  366.8583 LP  0  0  0  0  0  0  0  0  0  0  0  0  # atno 13547 bound_to 9030
  126.8412  242.0665  359.6549 LP  0  0  0  0  0  0  0  0  0  0  0  0  # atno 13558 bound_to 8366
  126.2927  243.1755  360.7207 LP  0  0  0  0  0  0  0  0  0  0  0  0  # atno 13559 bound_to 8366

> <Gold.Score>
     Fitness  S(hb_ext) S(vdw_ext)  S(hb_int)    S(int)      intcor
     37.54       0.04      27.49       0.00      -0.29      -0.76

> <Gold.Goldscore.Fitness>
37.5449

> <Gold.Goldscore.Internal.Vdw>
-0.4890

> <Gold.Goldscore.Internal.Torsion>
-0.5672

> <Gold.Goldscore.External.Vdw>
27.4915

> <Gold.Goldscore.Internal.HBond>
0.0000

> <Gold.Goldscore.External.HBond>
0.0354

> <Gold.Goldscore.Internal.Correction>
-0.7650

> <Gold.Goldscore.Hbonds>
donor molecule, donor type, donor heavy atom, donor atom, acceptor molecule, acceptor atom, score
      P1  H  8366  8396       L1    11  0.02

> <Gold.Goldscore.Internal.Vdw.Weighted>
-0.4890

> <Gold.Goldscore.Internal.Torsion.Weighted>
-0.5672

> <Gold.Goldscore.External.Vdw.Weighted>
37.8007

> <Gold.Goldscore.Internal.HBond.Weighted>
0.0000

> <Gold.Goldscore.External.HBond.Weighted>
0.0354

> <Gold.Goldscore.Internal.Correction.Weighted>
-0.7650

> <Gold.Rescore>
     Score     S(PLP)   S(hbond)     S(cho)   S(metal)  DE(clash)   DE(tors)     intcor
     27.47     -29.45       0.13       0.00       0.00       0.43       0.97       ----

> <Gold.PLP.Fitness>
27.4665

> <Gold.PLP.PLP>
-29.4518

> <Gold.PLP.part.hbond>
-5.4736

> <Gold.PLP.part.metal>
0.0000

> <Gold.PLP.part.buried>
1.5083

> <Gold.PLP.part.nonpolar>
-30.2479

> <Gold.PLP.part.repulsive>
3.7749

> <Gold.PLP.ligand.clash>
0.4319

> <Gold.PLP.ligand.torsion>
0.9698

> <Gold.PLP.Chemscore.Hbond>
0.1287

> <Gold.PLP.Chemscore.CHOScore>
0.0000

> <Gold.PLP.Chemscore.Metal>
0.0000

> <Gold.Chemscore.Hbonds>
donor molecule, donor type, donor heavy atom, donor atom, acceptor molecule, acceptor atom, score
      L1  H    10    23       P1  9396  0.18
      P1  H  9561  9584       L1    17  0.66

> <Gold.PLP.Chemscore.Internal.Correction>
   9.000000E+99

#       Name:                CT1002167954
#       Creating user name   hitesit
#       Creation time:       Sun Apr 16 22:51:09 2023


#       File generated by GOLD software.
#

@<TRIPOS>MOLECULE
CT1002167954|ligand_prepared|mol2|1|dock5
    29    30     1
SMALL
NO_CHARGES


@<TRIPOS>ATOM
      1 C1         124.2100 244.6786 356.7159 C.3            1 RES1               0.0000
      2 C2         122.8892 245.2189 357.3010 C.ar           1 RES1               0.0000
      3 C3         123.8641 243.3673 356.0166 C.2            1 RES1               0.0000
      4 C4         124.7374 245.7617 355.7814 C.2            1 RES1               0.0000
      5 C5         125.2956 244.3961 357.7805 C.3            1 RES1               0.0000
      6 C6         122.0580 246.0347 356.5391 C.ar           1 RES1               0.0000
      7 C7         122.4880 244.9087 358.5977 C.ar           1 RES1               0.0000
      8 N8         123.8447 243.3643 354.6530 N.am           1 RES1               0.0000
      9 O9         123.5741 242.3612 356.6523 O.2            1 RES1               0.0000
     10 N10        124.7972 245.4805 354.4416 N.am           1 RES1               0.0000
     11 O11        125.0860 246.8621 356.1912 O.2            1 RES1               0.0000
     12 C12        126.6783 244.1523 357.1965 C.3            1 RES1               0.0000
     13 C13        120.8674 246.5203 357.0538 C.ar           1 RES1               0.0000
     14 C14        121.2970 245.3956 359.1105 C.ar           1 RES1               0.0000
     15 C15        124.3459 244.3419 353.8315 C.2            1 RES1               0.0000
     16 C16        120.4859 246.2008 358.3395 C.ar           1 RES1               0.0000
     17 O17        124.3840 244.1846 352.6145 O.2            1 RES1               0.0000
     18 H18        125.3478 245.2502 358.4668 H              1 RES1               0.0000
     19 H19        124.9981 243.5155 358.3631 H              1 RES1               0.0000
     20 H20        122.3429 246.2988 355.5261 H              1 RES1               0.0000
     21 H21        123.1108 244.2779 359.2228 H              1 RES1               0.0000
     22 H22        123.4180 242.5611 354.2024 H              1 RES1               0.0000
     23 H23        125.2171 246.1851 353.8437 H              1 RES1               0.0000
     24 H24        127.4018 243.9592 357.9858 H              1 RES1               0.0000
     25 H25        126.6688 243.2938 356.5281 H              1 RES1               0.0000
     26 H26        127.0164 245.0183 356.6312 H              1 RES1               0.0000
     27 H27        120.2333 247.1548 356.4434 H              1 RES1               0.0000
     28 H28        121.0010 245.1421 360.1231 H              1 RES1               0.0000
     29 H29        119.5530 246.5811 358.7423 H              1 RES1               0.0000
@<TRIPOS>BOND
    1    1    2 1     
    2    1    3 1     
    3    1    4 1     
    4    1    5 1     
    5    2    6 ar    
    6    2    7 ar    
    7    3    8 1     
    8    3    9 2     
    9    4   10 1     
   10    4   11 2     
   11    5   12 1     
   12    5   18 1     
   13    5   19 1     
   14    6   13 ar    
   15    6   20 1     
   16    7   14 ar    
   17    7   21 1     
   18    8   15 1     
   19    8   22 1     
   20   10   15 1     
   21   10   23 1     
   22   12   24 1     
   23   12   25 1     
   24   12   26 1     
   25   13   16 ar    
   26   13   27 1     
   27   14   16 ar    
   28   14   28 1     
   29   15   17 2     
   30   16   29 1     
@<TRIPOS>SUBSTRUCTURE
      1 RES1           1
@<TRIPOS>SET
DONOR_HYDROGENS      STATIC     ATOMS    <user>   **** ""
2 22 23
ATOM$RED        STATIC     ATOMS    COLORGROUP SYSTEM
2 22 23
@<TRIPOS>COMMENT
> <Gold.Version>
2022.3.0

> <Gold.Id.Protein>
unknown|4uh5_clean|pdb

> <Gold.Protein.RotatedTorsions>
[ 9150 9120 9119 9117 ] final  -20.58 input   60.01 | X-H torsion
[ 9046 9030 9029 9026 ] final  -97.66 input   59.99 | X-H torsion
[ 8396 8366 8365 8363 ] final   14.61 input   60.01 | X-H torsion

> <Gold.Protein.ActiveResidues>
 MET341  TRP414  CYS420  VAL421  GLY422  LEU429  LEU460  SER462  ALA463  ILE464 
 SER482  GLN483  LEU484  ILE485  ARG486  TYR487  ASP500  ALA502  ASN503  TRP566 
 TYR567  LEU569  PRO570  ALA571  VAL572  SER573  ASN574  PRO588  PHE589  SER590 
 GLY591  TRP592  TYR593  MET594  GLY595  THR596  GLU597  ILE598  ARG601  ASP602 
 ASP605  ARG608  ILE653  VAL654  TRP683  PRO687  SER691  PHE696  HIS697  TYR711 
 HEM750  H4B760 

> <Gold.Protein.RotatedAtoms>
  125.3114  242.9838  360.2004 H   0  0  0  0  0  0  0  0  0  0  0  0  # atno 8396 bound_to 8366
  115.6932  245.8755  367.1774 H   0  0  0  0  0  0  0  0  0  0  0  0  # atno 9046 bound_to 9030
  123.2261  241.7587  358.0925 H   0  0  0  0  0  0  0  0  0  0  0  0  # atno 9150 bound_to 9120
  123.6023  240.7296  359.2954 LP  0  0  0  0  0  0  0  0  0  0  0  0  # atno 13532 bound_to 9120
  122.7426  242.0813  359.6124 LP  0  0  0  0  0  0  0  0  0  0  0  0  # atno 13533 bound_to 9120
  115.8417  244.2852  366.8656 LP  0  0  0  0  0  0  0  0  0  0  0  0  # atno 13546 bound_to 9030
  114.7871  245.1928  366.0108 LP  0  0  0  0  0  0  0  0  0  0  0  0  # atno 13547 bound_to 9030
  126.1948  241.9440  359.3141 LP  0  0  0  0  0  0  0  0  0  0  0  0  # atno 13558 bound_to 8366
  126.9003  242.8106  360.5048 LP  0  0  0  0  0  0  0  0  0  0  0  0  # atno 13559 bound_to 8366

> <Gold.Score>
     Fitness  S(hb_ext) S(vdw_ext)  S(hb_int)    S(int)      intcor
     36.29       2.27      25.01       0.00      -0.36      -0.76

> <Gold.Goldscore.Fitness>
36.2945

> <Gold.Goldscore.Internal.Vdw>
-0.5201

> <Gold.Goldscore.Internal.Torsion>
-0.6024

> <Gold.Goldscore.External.Vdw>
25.0072

> <Gold.Goldscore.Internal.HBond>
0.0000

> <Gold.Goldscore.External.HBond>
2.2671

> <Gold.Goldscore.Internal.Correction>
-0.7650

> <Gold.Goldscore.Hbonds>
donor molecule, donor type, donor heavy atom, donor atom, acceptor molecule, acceptor atom, score
      P1  H  9120  9150       L1     9  1.00
      L1  H     8    22       P1  9230  0.13

> <Gold.Goldscore.Internal.Vdw.Weighted>
-0.5201

> <Gold.Goldscore.Internal.Torsion.Weighted>
-0.6024

> <Gold.Goldscore.External.Vdw.Weighted>
34.3849

> <Gold.Goldscore.Internal.HBond.Weighted>
0.0000

> <Gold.Goldscore.External.HBond.Weighted>
2.2671

> <Gold.Goldscore.Internal.Correction.Weighted>
-0.7650

> <Gold.Rescore>
     Score     S(PLP)   S(hbond)     S(cho)   S(metal)  DE(clash)   DE(tors)     intcor
     35.40     -34.67       0.99       0.00       0.00       0.00       1.13       ----

> <Gold.PLP.Fitness>
35.4038

> <Gold.PLP.PLP>
-34.6732

> <Gold.PLP.part.hbond>
-1.7574

> <Gold.PLP.part.metal>
0.0000

> <Gold.PLP.part.buried>
-7.4011

> <Gold.PLP.part.nonpolar>
-28.1255

> <Gold.PLP.part.repulsive>
1.4252

> <Gold.PLP.ligand.clash>
0.0000

> <Gold.PLP.ligand.torsion>
1.1263

> <Gold.PLP.Chemscore.Hbond>
0.9944

> <Gold.PLP.Chemscore.CHOScore>
0.0000

> <Gold.PLP.Chemscore.Metal>
0.0000

> <Gold.Chemscore.Hbonds>
donor molecule, donor type, donor heavy atom, donor atom, acceptor molecule, acceptor atom, score
      P1  H  9120  9150       L1     9  0.99

> <Gold.PLP.Chemscore.Internal.Correction>
   9.000000E+99

#       Name:                CT1002167954
#       Creating user name   hitesit
#       Creation time:       Sun Apr 16 22:51:14 2023


#       File generated by GOLD software.
#

@<TRIPOS>MOLECULE
CT1002167954|ligand_prepared|mol2|1|dock10
    29    30     1
SMALL
NO_CHARGES


@<TRIPOS>ATOM
      1 C1         124.4099 245.3825 355.6835 C.3            1 RES1               0.0000
      2 C2         125.0242 245.4807 354.2722 C.ar           1 RES1               0.0000
      3 C3         124.0551 246.8079 356.0964 C.2            1 RES1               0.0000
      4 C4         123.2079 244.4525 355.5617 C.2            1 RES1               0.0000
      5 C5         125.3682 244.7886 356.7420 C.3            1 RES1               0.0000
      6 C6         124.2275 245.3330 353.1407 C.ar           1 RES1               0.0000
      7 C7         126.3830 245.7209 354.0861 C.ar           1 RES1               0.0000
      8 N8         122.7366 247.1564 356.0950 N.am           1 RES1               0.0000
      9 O9         124.9218 247.6253 356.3808 O.2            1 RES1               0.0000
     10 N10        121.9622 244.9820 355.7754 N.am           1 RES1               0.0000
     11 O11        123.3269 243.2698 355.2663 O.2            1 RES1               0.0000
     12 C12        124.6804 244.3960 358.0401 C.3            1 RES1               0.0000
     13 C13        124.7690 245.4250 351.8692 C.ar           1 RES1               0.0000
     14 C14        126.9225 245.8123 352.8136 C.ar           1 RES1               0.0000
     15 C15        121.6698 246.2986 356.0064 C.2            1 RES1               0.0000
     16 C16        126.1165 245.6651 351.7048 C.ar           1 RES1               0.0000
     17 O17        120.5194 246.7076 356.1344 O.2            1 RES1               0.0000
     18 H18        125.8560 243.9019 356.3188 H              1 RES1               0.0000
     19 H19        126.1488 245.5263 356.9652 H              1 RES1               0.0000
     20 H20        123.1654 245.1411 353.2504 H              1 RES1               0.0000
     21 H21        127.0363 245.8390 354.9439 H              1 RES1               0.0000
     22 H22        122.5241 248.1464 356.1664 H              1 RES1               0.0000
     23 H23        121.1804 244.3347 355.7612 H              1 RES1               0.0000
     24 H24        125.3975 243.9852 358.7477 H              1 RES1               0.0000
     25 H25        124.2056 245.2594 358.5015 H              1 RES1               0.0000
     26 H26        123.9146 243.6446 357.8589 H              1 RES1               0.0000
     27 H27        124.1307 245.3070 350.9998 H              1 RES1               0.0000
     28 H28        127.9837 246.0008 352.6889 H              1 RES1               0.0000
     29 H29        126.5404 245.7375 350.7086 H              1 RES1               0.0000
@<TRIPOS>BOND
    1    1    2 1     
    2    1    3 1     
    3    1    4 1     
    4    1    5 1     
    5    2    6 ar    
    6    2    7 ar    
    7    3    8 1     
    8    3    9 2     
    9    4   10 1     
   10    4   11 2     
   11    5   12 1     
   12    5   18 1     
   13    5   19 1     
   14    6   13 ar    
   15    6   20 1     
   16    7   14 ar    
   17    7   21 1     
   18    8   15 1     
   19    8   22 1     
   20   10   15 1     
   21   10   23 1     
   22   12   24 1     
   23   12   25 1     
   24   12   26 1     
   25   13   16 ar    
   26   13   27 1     
   27   14   16 ar    
   28   14   28 1     
   29   15   17 2     
   30   16   29 1     
@<TRIPOS>SUBSTRUCTURE
      1 RES1           1
@<TRIPOS>SET
DONOR_HYDROGENS      STATIC     ATOMS    <user>   **** ""
2 22 23
ATOM$RED        STATIC     ATOMS    COLORGROUP SYSTEM
2 22 23
@<TRIPOS>COMMENT
> <Gold.Version>
2022.3.0

> <Gold.Id.Protein>
unknown|4uh5_clean|pdb

> <Gold.Protein.RotatedTorsions>
[ 9150 9120 9119 9117 ] final  -53.23 input   60.01 | X-H torsion
[ 9046 9030 9029 9026 ] final  -96.15 input   59.99 | X-H torsion
[ 8396 8366 8365 8363 ] final -118.07 input   60.01 | X-H torsion

> <Gold.Protein.ActiveResidues>
 MET341  TRP414  CYS420  VAL421  GLY422  LEU429  LEU460  SER462  ALA463  ILE464 
 SER482  GLN483  LEU484  ILE485  ARG486  TYR487  ASP500  ALA502  ASN503  TRP566 
 TYR567  LEU569  PRO570  ALA571  VAL572  SER573  ASN574  PRO588  PHE589  SER590 
 GLY591  TRP592  TYR593  MET594  GLY595  THR596  GLU597  ILE598  ARG601  ASP602 
 ASP605  ARG608  ILE653  VAL654  TRP683  PRO687  SER691  PHE696  HIS697  TYR711 
 HEM750  H4B760 

> <Gold.Protein.RotatedAtoms>
  126.3930  241.9400  359.3757 H   0  0  0  0  0  0  0  0  0  0  0  0  # atno 8396 bound_to 8366
  115.6772  245.8889  367.1643 H   0  0  0  0  0  0  0  0  0  0  0  0  # atno 9046 bound_to 9030
  123.4861  241.3035  358.1375 H   0  0  0  0  0  0  0  0  0  0  0  0  # atno 9150 bound_to 9120
  123.3861  240.9547  359.7237 LP  0  0  0  0  0  0  0  0  0  0  0  0  # atno 13532 bound_to 9120
  122.6970  242.3147  359.1388 LP  0  0  0  0  0  0  0  0  0  0  0  0  # atno 13533 bound_to 9120
  115.8553  244.2959  366.8834 LP  0  0  0  0  0  0  0  0  0  0  0  0  # atno 13546 bound_to 9030
  114.7896  245.1685  366.0062 LP  0  0  0  0  0  0  0  0  0  0  0  0  # atno 13547 bound_to 9030
  126.7689  242.9374  360.6050 LP  0  0  0  0  0  0  0  0  0  0  0  0  # atno 13558 bound_to 8366
  125.2366  242.8687  360.0448 LP  0  0  0  0  0  0  0  0  0  0  0  0  # atno 13559 bound_to 8366

> <Gold.Score>
     Fitness  S(hb_ext) S(vdw_ext)  S(hb_int)    S(int)      intcor
     35.87       5.21      22.77       0.00      -0.65      -0.76

> <Gold.Goldscore.Fitness>
35.8738

> <Gold.Goldscore.Internal.Vdw>
-0.7769

> <Gold.Goldscore.Internal.Torsion>
-0.6351

> <Gold.Goldscore.External.Vdw>
22.7717

> <Gold.Goldscore.Internal.HBond>
0.0000

> <Gold.Goldscore.External.HBond>
5.2098

> <Gold.Goldscore.Internal.Correction>
-0.7650

> <Gold.Goldscore.Hbonds>
donor molecule, donor type, donor heavy atom, donor atom, acceptor molecule, acceptor atom, score
      L1  H    10    23       P1  9234  0.87

> <Gold.Goldscore.Internal.Vdw.Weighted>
-0.7769

> <Gold.Goldscore.Internal.Torsion.Weighted>
-0.6351

> <Gold.Goldscore.External.Vdw.Weighted>
31.3112

> <Gold.Goldscore.Internal.HBond.Weighted>
0.0000

> <Gold.Goldscore.External.HBond.Weighted>
5.2098

> <Gold.Goldscore.Internal.Correction.Weighted>
-0.7650

> <Gold.Rescore>
     Score     S(PLP)   S(hbond)     S(cho)   S(metal)  DE(clash)   DE(tors)     intcor
     26.22     -26.31       0.78       0.00       0.00       0.68       0.88       ----

> <Gold.PLP.Fitness>
26.2229

> <Gold.PLP.PLP>
-26.3101

> <Gold.PLP.part.hbond>
-3.0000

> <Gold.PLP.part.metal>
0.0000

> <Gold.PLP.part.buried>
-4.7139

> <Gold.PLP.part.nonpolar>
-21.0991

> <Gold.PLP.part.repulsive>
0.6150

> <Gold.PLP.ligand.clash>
0.6811

> <Gold.PLP.ligand.torsion>
0.8790

> <Gold.PLP.Chemscore.Hbond>
0.7840

> <Gold.PLP.Chemscore.CHOScore>
0.0000

> <Gold.PLP.Chemscore.Metal>
0.0000

> <Gold.Chemscore.Hbonds>
donor molecule, donor type, donor heavy atom, donor atom, acceptor molecule, acceptor atom, score
      L1  H    10    23       P1  9234  1.00

> <Gold.PLP.Chemscore.Internal.Correction>
   9.000000E+99

#       Name:                CT1002167954
#       Creating user name   hitesit
#       Creation time:       Sun Apr 16 22:51:12 2023


#       File generated by GOLD software.
#

@<TRIPOS>MOLECULE
CT1002167954|ligand_prepared|mol2|1|dock8
    29    30     1
SMALL
NO_CHARGES


@<TRIPOS>ATOM
      1 C1         121.2898 245.8228 357.6070 C.3            1 RES1               0.0000
      2 C2         119.7504 245.8720 357.5263 C.ar           1 RES1               0.0000
      3 C3         121.6682 246.4358 358.9521 C.2            1 RES1               0.0000
      4 C4         121.6780 244.3557 357.4607 C.2            1 RES1               0.0000
      5 C5         121.9999 246.6189 356.4873 C.3            1 RES1               0.0000
      6 C6         118.9962 244.7103 357.6621 C.ar           1 RES1               0.0000
      7 C7         119.0713 247.0698 357.3196 C.ar           1 RES1               0.0000
      8 N8         122.0923 245.5906 359.9347 N.am           1 RES1               0.0000
      9 O9         121.5584 247.6379 359.1600 O.2            1 RES1               0.0000
     10 N10        122.2612 243.7356 358.5345 N.am           1 RES1               0.0000
     11 O11        121.4690 243.7265 356.4308 O.2            1 RES1               0.0000
     12 C12        123.5165 246.5168 356.5297 C.3            1 RES1               0.0000
     13 C13        117.6132 244.7452 357.5966 C.ar           1 RES1               0.0000
     14 C14        117.6882 247.1024 357.2542 C.ar           1 RES1               0.0000
     15 C15        122.4579 244.2781 359.7752 C.2            1 RES1               0.0000
     16 C16        116.9582 245.9411 357.3931 C.ar           1 RES1               0.0000
     17 O17        122.9390 243.6398 360.7070 O.2            1 RES1               0.0000
     18 H18        121.6483 246.2513 355.5153 H              1 RES1               0.0000
     19 H19        121.7147 247.6750 356.5695 H              1 RES1               0.0000
     20 H20        119.4942 243.7596 357.8205 H              1 RES1               0.0000
     21 H21        119.6250 247.9957 357.2065 H              1 RES1               0.0000
     22 H22        122.1422 245.9693 360.8751 H              1 RES1               0.0000
     23 H23        122.5781 242.7813 358.3962 H              1 RES1               0.0000
     24 H24        123.9645 247.0933 355.7231 H              1 RES1               0.0000
     25 H25        123.9025 246.8973 357.4731 H              1 RES1               0.0000
     26 H26        123.8365 245.4822 356.4252 H              1 RES1               0.0000
     27 H27        117.0434 243.8282 357.7052 H              1 RES1               0.0000
     28 H28        117.1769 248.0458 357.0932 H              1 RES1               0.0000
     29 H29        115.8748 245.9682 357.3422 H              1 RES1               0.0000
@<TRIPOS>BOND
    1    1    2 1     
    2    1    3 1     
    3    1    4 1     
    4    1    5 1     
    5    2    6 ar    
    6    2    7 ar    
    7    3    8 1     
    8    3    9 2     
    9    4   10 1     
   10    4   11 2     
   11    5   12 1     
   12    5   18 1     
   13    5   19 1     
   14    6   13 ar    
   15    6   20 1     
   16    7   14 ar    
   17    7   21 1     
   18    8   15 1     
   19    8   22 1     
   20   10   15 1     
   21   10   23 1     
   22   12   24 1     
   23   12   25 1     
   24   12   26 1     
   25   13   16 ar    
   26   13   27 1     
   27   14   16 ar    
   28   14   28 1     
   29   15   17 2     
   30   16   29 1     
@<TRIPOS>SUBSTRUCTURE
      1 RES1           1
@<TRIPOS>SET
DONOR_HYDROGENS      STATIC     ATOMS    <user>   **** ""
2 22 23
ATOM$RED        STATIC     ATOMS    COLORGROUP SYSTEM
2 22 23
@<TRIPOS>COMMENT
> <Gold.Version>
2022.3.0

> <Gold.Id.Protein>
unknown|4uh5_clean|pdb

> <Gold.Protein.RotatedTorsions>
[ 9150 9120 9119 9117 ] final -158.07 input   60.01 | X-H torsion
[ 9046 9030 9029 9026 ] final -133.17 input   59.99 | X-H torsion
[ 8396 8366 8365 8363 ] final  -10.11 input   60.01 | X-H torsion

> <Gold.Protein.ActiveResidues>
 MET341  TRP414  CYS420  VAL421  GLY422  LEU429  LEU460  SER462  ALA463  ILE464 
 SER482  GLN483  LEU484  ILE485  ARG486  TYR487  ASP500  ALA502  ASN503  TRP566 
 TYR567  LEU569  PRO570  ALA571  VAL572  SER573  ASN574  PRO588  PHE589  SER590 
 GLY591  TRP592  TYR593  MET594  GLY595  THR596  GLU597  ILE598  ARG601  ASP602 
 ASP605  ARG608  ILE653  VAL654  TRP683  PRO687  SER691  PHE696  HIS697  TYR711 
 HEM750  H4B760 

> <Gold.Protein.RotatedAtoms>
  125.2176  242.7390  359.8975 H   0  0  0  0  0  0  0  0  0  0  0  0  # atno 8396 bound_to 8366
  115.9978  245.4328  367.3704 H   0  0  0  0  0  0  0  0  0  0  0  0  # atno 9046 bound_to 9030
  123.4950  240.8256  359.5421 H   0  0  0  0  0  0  0  0  0  0  0  0  # atno 9150 bound_to 9120
  122.6985  242.2346  359.3742 LP  0  0  0  0  0  0  0  0  0  0  0  0  # atno 13532 bound_to 9120
  123.3756  241.5161  358.0735 LP  0  0  0  0  0  0  0  0  0  0  0  0  # atno 13533 bound_to 9120
  115.4635  244.2098  366.4393 LP  0  0  0  0  0  0  0  0  0  0  0  0  # atno 13546 bound_to 9030
  114.8587  245.7139  366.2428 LP  0  0  0  0  0  0  0  0  0  0  0  0  # atno 13547 bound_to 9030
  126.5741  241.9594  359.4511 LP  0  0  0  0  0  0  0  0  0  0  0  0  # atno 13558 bound_to 8366
  126.6155  243.0417  360.6731 LP  0  0  0  0  0  0  0  0  0  0  0  0  # atno 13559 bound_to 8366

> <Gold.Score>
     Fitness  S(hb_ext) S(vdw_ext)  S(hb_int)    S(int)      intcor
     35.37       1.09      26.38       0.00      -1.99      -0.76

> <Gold.Goldscore.Fitness>
35.3731

> <Gold.Goldscore.Internal.Vdw>
-2.3787

> <Gold.Goldscore.Internal.Torsion>
-0.3784

> <Gold.Goldscore.External.Vdw>
26.3809

> <Gold.Goldscore.Internal.HBond>
0.0000

> <Gold.Goldscore.External.HBond>
1.0915

> <Gold.Goldscore.Internal.Correction>
-0.7650

> <Gold.Goldscore.Hbonds>
donor molecule, donor type, donor heavy atom, donor atom, acceptor molecule, acceptor atom, score
      P1  H  8366  8396       L1    17  0.05
      L1  H    10    23       P1  9120  0.49

> <Gold.Goldscore.Internal.Vdw.Weighted>
-2.3787

> <Gold.Goldscore.Internal.Torsion.Weighted>
-0.3784

> <Gold.Goldscore.External.Vdw.Weighted>
36.2738

> <Gold.Goldscore.Internal.HBond.Weighted>
0.0000

> <Gold.Goldscore.External.HBond.Weighted>
1.0915

> <Gold.Goldscore.Internal.Correction.Weighted>
-0.7650

> <Gold.Rescore>
     Score     S(PLP)   S(hbond)     S(cho)   S(metal)  DE(clash)   DE(tors)     intcor
     27.22     -26.39       1.00       0.00       0.00       1.95       0.12       ----

> <Gold.PLP.Fitness>
27.2150

> <Gold.PLP.PLP>
-26.3906

> <Gold.PLP.part.hbond>
-1.6374

> <Gold.PLP.part.metal>
0.0000

> <Gold.PLP.part.buried>
12.4512

> <Gold.PLP.part.nonpolar>
-44.8675

> <Gold.PLP.part.repulsive>
6.4721

> <Gold.PLP.ligand.clash>
1.9453

> <Gold.PLP.ligand.torsion>
0.1151

> <Gold.PLP.Chemscore.Hbond>
1.0000

> <Gold.PLP.Chemscore.CHOScore>
0.0000

> <Gold.PLP.Chemscore.Metal>
0.0000

> <Gold.Chemscore.Hbonds>
donor molecule, donor type, donor heavy atom, donor atom, acceptor molecule, acceptor atom, score
      L1  H    10    23       P1  9120  0.91

> <Gold.PLP.Chemscore.Internal.Correction>
   9.000000E+99

#       Name:                CT1002167954
#       Creating user name   hitesit
#       Creation time:       Sun Apr 16 22:51:06 2023


#       File generated by GOLD software.
#

@<TRIPOS>MOLECULE
CT1002167954|ligand_prepared|mol2|1|dock1
    29    30     1
SMALL
NO_CHARGES


@<TRIPOS>ATOM
      1 C1         123.8111 245.1313 356.0267 C.3            1 RES1               0.0000
      2 C2         123.6001 245.1728 354.4994 C.ar           1 RES1               0.0000
      3 C3         123.5027 246.5347 356.5401 C.2            1 RES1               0.0000
      4 C4         122.8720 244.0541 356.5580 C.2            1 RES1               0.0000
      5 C5         125.2518 244.7595 356.4485 C.3            1 RES1               0.0000
      6 C6         124.5687 245.7225 353.6649 C.ar           1 RES1               0.0000
      7 C7         122.4454 244.6638 353.9112 C.ar           1 RES1               0.0000
      8 N8         122.3310 246.7178 357.2136 N.am           1 RES1               0.0000
      9 O9         124.2573 247.4747 356.3230 O.2            1 RES1               0.0000
     10 N10        121.8437 244.4448 357.3751 N.am           1 RES1               0.0000
     11 O11        123.0032 242.8726 356.2629 O.2            1 RES1               0.0000
     12 C12        125.3912 244.4252 357.9253 C.3            1 RES1               0.0000
     13 C13        124.3908 245.7594 352.2919 C.ar           1 RES1               0.0000
     14 C14        122.2693 244.7019 352.5378 C.ar           1 RES1               0.0000
     15 C15        121.5124 245.7315 357.7022 C.2            1 RES1               0.0000
     16 C16        123.2413 245.2488 351.7274 C.ar           1 RES1               0.0000
     17 O17        120.5397 246.0069 358.3988 O.2            1 RES1               0.0000
     18 H18        125.5806 243.8954 355.8582 H              1 RES1               0.0000
     19 H19        125.9167 245.5995 356.2124 H              1 RES1               0.0000
     20 H20        125.4787 246.1313 354.0913 H              1 RES1               0.0000
     21 H21        121.6668 244.2297 354.5292 H              1 RES1               0.0000
     22 H22        122.0362 247.6767 357.3681 H              1 RES1               0.0000
     23 H23        121.2724 243.7083 357.7769 H              1 RES1               0.0000
     24 H24        126.4211 244.1717 358.1678 H              1 RES1               0.0000
     25 H25        125.0964 245.2717 358.5420 H              1 RES1               0.0000
     26 H26        124.7623 243.5776 358.1899 H              1 RES1               0.0000
     27 H27        125.1582 246.1921 351.6585 H              1 RES1               0.0000
     28 H28        121.3628 244.2994 352.0980 H              1 RES1               0.0000
     29 H29        123.1023 245.2774 350.6517 H              1 RES1               0.0000
@<TRIPOS>BOND
    1    1    2 1     
    2    1    3 1     
    3    1    4 1     
    4    1    5 1     
    5    2    6 ar    
    6    2    7 ar    
    7    3    8 1     
    8    3    9 2     
    9    4   10 1     
   10    4   11 2     
   11    5   12 1     
   12    5   18 1     
   13    5   19 1     
   14    6   13 ar    
   15    6   20 1     
   16    7   14 ar    
   17    7   21 1     
   18    8   15 1     
   19    8   22 1     
   20   10   15 1     
   21   10   23 1     
   22   12   24 1     
   23   12   25 1     
   24   12   26 1     
   25   13   16 ar    
   26   13   27 1     
   27   14   16 ar    
   28   14   28 1     
   29   15   17 2     
   30   16   29 1     
@<TRIPOS>SUBSTRUCTURE
      1 RES1           1
@<TRIPOS>SET
DONOR_HYDROGENS      STATIC     ATOMS    <user>   **** ""
2 22 23
ATOM$RED        STATIC     ATOMS    COLORGROUP SYSTEM
2 22 23
@<TRIPOS>COMMENT
> <Gold.Version>
2022.3.0

> <Gold.Id.Protein>
unknown|4uh5_clean|pdb

> <Gold.Protein.RotatedTorsions>
[ 9150 9120 9119 9117 ] final   83.63 input   60.01 | X-H torsion
[ 9046 9030 9029 9026 ] final  173.96 input   59.99 | X-H torsion
[ 8396 8366 8365 8363 ] final   99.98 input   60.01 | X-H torsion

> <Gold.Protein.ActiveResidues>
 MET341  TRP414  CYS420  VAL421  GLY422  LEU429  LEU460  SER462  ALA463  ILE464 
 SER482  GLN483  LEU484  ILE485  ARG486  TYR487  ASP500  ALA502  ASN503  TRP566 
 TYR567  LEU569  PRO570  ALA571  VAL572  SER573  ASN574  PRO588  PHE589  SER590 
 GLY591  TRP592  TYR593  MET594  GLY595  THR596  GLU597  ILE598  ARG601  ASP602 
 ASP605  ARG608  ILE653  VAL654  TRP683  PRO687  SER691  PHE696  HIS697  TYR711 
 HEM750  H4B760 

> <Gold.Protein.RotatedAtoms>
  126.4699  243.1071  360.7037 H   0  0  0  0  0  0  0  0  0  0  0  0  # atno 8396 bound_to 8366
  116.0542  244.6211  367.1883 H   0  0  0  0  0  0  0  0  0  0  0  0  # atno 9046 bound_to 9030
  122.7024  242.2163  359.3961 H   0  0  0  0  0  0  0  0  0  0  0  0  # atno 9150 bound_to 9120
  123.3619  241.5403  358.0710 LP  0  0  0  0  0  0  0  0  0  0  0  0  # atno 13532 bound_to 9120
  123.5106  240.8097  359.5239 LP  0  0  0  0  0  0  0  0  0  0  0  0  # atno 13533 bound_to 9120
  114.9292  244.6990  366.0150 LP  0  0  0  0  0  0  0  0  0  0  0  0  # atno 13546 bound_to 9030
  115.3362  246.0418  366.8504 LP  0  0  0  0  0  0  0  0  0  0  0  0  # atno 13547 bound_to 9030
  125.2210  242.6319  359.7754 LP  0  0  0  0  0  0  0  0  0  0  0  0  # atno 13558 bound_to 8366
  126.7071  241.9985  359.5366 LP  0  0  0  0  0  0  0  0  0  0  0  0  # atno 13559 bound_to 8366

> <Gold.Score>
     Fitness  S(hb_ext) S(vdw_ext)  S(hb_int)    S(int)      intcor
     33.42       0.00      24.98       0.00      -0.93      -0.89

> <Gold.Goldscore.Fitness>
33.4194

> <Gold.Goldscore.Internal.Vdw>
-1.2102

> <Gold.Goldscore.Internal.Torsion>
-0.6044

> <Gold.Goldscore.External.Vdw>
24.9796

> <Gold.Goldscore.Internal.HBond>
0.0000

> <Gold.Goldscore.External.HBond>
0.0000

> <Gold.Goldscore.Internal.Correction>
-0.8869

> <Gold.Goldscore.Internal.Vdw.Weighted>
-1.2102

> <Gold.Goldscore.Internal.Torsion.Weighted>
-0.6044

> <Gold.Goldscore.External.Vdw.Weighted>
34.3470

> <Gold.Goldscore.Internal.HBond.Weighted>
0.0000

> <Gold.Goldscore.External.HBond.Weighted>
0.0000

> <Gold.Goldscore.Internal.Correction.Weighted>
-0.8869

> <Gold.Rescore>
     Score     S(PLP)   S(hbond)     S(cho)   S(metal)  DE(clash)   DE(tors)     intcor
     31.08     -32.60       0.00       0.00       0.00       1.43       0.04       ----

> <Gold.PLP.Fitness>
31.0787

> <Gold.PLP.PLP>
-32.5963

> <Gold.PLP.part.hbond>
-2.8055

> <Gold.PLP.part.metal>
0.0000

> <Gold.PLP.part.buried>
-7.1530

> <Gold.PLP.part.nonpolar>
-24.1002

> <Gold.PLP.part.repulsive>
0.4661

> <Gold.PLP.ligand.clash>
1.4337

> <Gold.PLP.ligand.torsion>
0.0420

> <Gold.PLP.Chemscore.Hbond>
0.0000

> <Gold.PLP.Chemscore.CHOScore>
0.0000

> <Gold.PLP.Chemscore.Metal>
0.0000

> <Gold.PLP.Chemscore.Internal.Correction>
   9.000000E+99

#       Name:                CT1002167954
#       Creating user name   hitesit
#       Creation time:       Sun Apr 16 22:51:13 2023


#       File generated by GOLD software.
#

@<TRIPOS>MOLECULE
CT1002167954|ligand_prepared|mol2|1|dock9
    29    30     1
SMALL
NO_CHARGES


@<TRIPOS>ATOM
      1 C1         123.4102 245.0543 355.5715 C.3            1 RES1               0.0000
      2 C2         123.8623 245.4784 354.1592 C.ar           1 RES1               0.0000
      3 C3         123.5181 243.5329 355.6170 C.2            1 RES1               0.0000
      4 C4         124.3337 245.7730 356.5489 C.2            1 RES1               0.0000
      5 C5         121.9546 245.4537 355.9078 C.3            1 RES1               0.0000
      6 C6         125.1479 245.9654 353.9432 C.ar           1 RES1               0.0000
      7 C7         123.0074 245.3861 353.0641 C.ar           1 RES1               0.0000
      8 N8         124.5465 242.9936 356.3321 N.am           1 RES1               0.0000
      9 O9         122.7361 242.8181 355.0024 O.2            1 RES1               0.0000
     10 N10        125.1812 245.0112 357.3099 N.am           1 RES1               0.0000
     11 O11        124.3469 246.9932 356.6548 O.2            1 RES1               0.0000
     12 C12        121.4900 244.9819 357.2767 C.3            1 RES1               0.0000
     13 C13        125.5649 246.3436 352.6777 C.ar           1 RES1               0.0000
     14 C14        123.4263 245.7651 351.7995 C.ar           1 RES1               0.0000
     15 C15        125.3512 243.6563 357.2238 C.2            1 RES1               0.0000
     16 C16        124.7047 246.2434 351.6051 C.ar           1 RES1               0.0000
     17 O17        126.1727 243.0486 357.9042 O.2            1 RES1               0.0000
     18 H18        121.8690 246.5464 355.8632 H              1 RES1               0.0000
     19 H19        121.2878 245.0337 355.1446 H              1 RES1               0.0000
     20 H20        125.8381 246.0537 354.7756 H              1 RES1               0.0000
     21 H21        121.9969 245.0137 353.1936 H              1 RES1               0.0000
     22 H22        124.7348 242.0062 356.1908 H              1 RES1               0.0000
     23 H23        125.7367 245.4995 358.0052 H              1 RES1               0.0000
     24 H24        120.4627 245.2884 357.4622 H              1 RES1               0.0000
     25 H25        121.5381 243.8973 357.3476 H              1 RES1               0.0000
     26 H26        122.1158 245.4010 358.0619 H              1 RES1               0.0000
     27 H27        126.5716 246.7207 352.5302 H              1 RES1               0.0000
     28 H28        122.7458 245.6851 350.9583 H              1 RES1               0.0000
     29 H29        125.0317 246.5394 350.6138 H              1 RES1               0.0000
@<TRIPOS>BOND
    1    1    2 1     
    2    1    3 1     
    3    1    4 1     
    4    1    5 1     
    5    2    6 ar    
    6    2    7 ar    
    7    3    8 1     
    8    3    9 2     
    9    4   10 1     
   10    4   11 2     
   11    5   12 1     
   12    5   18 1     
   13    5   19 1     
   14    6   13 ar    
   15    6   20 1     
   16    7   14 ar    
   17    7   21 1     
   18    8   15 1     
   19    8   22 1     
   20   10   15 1     
   21   10   23 1     
   22   12   24 1     
   23   12   25 1     
   24   12   26 1     
   25   13   16 ar    
   26   13   27 1     
   27   14   16 ar    
   28   14   28 1     
   29   15   17 2     
   30   16   29 1     
@<TRIPOS>SUBSTRUCTURE
      1 RES1           1
@<TRIPOS>SET
DONOR_HYDROGENS      STATIC     ATOMS    <user>   **** ""
2 22 23
ATOM$RED        STATIC     ATOMS    COLORGROUP SYSTEM
2 22 23
@<TRIPOS>COMMENT
> <Gold.Version>
2022.3.0

> <Gold.Id.Protein>
unknown|4uh5_clean|pdb

> <Gold.Protein.RotatedTorsions>
[ 9150 9120 9119 9117 ] final   60.99 input   60.01 | X-H torsion
[ 9046 9030 9029 9026 ] final -114.33 input   59.99 | X-H torsion
[ 8396 8366 8365 8363 ] final  -86.83 input   60.01 | X-H torsion

> <Gold.Protein.ActiveResidues>
 MET341  TRP414  CYS420  VAL421  GLY422  LEU429  LEU460  SER462  ALA463  ILE464 
 SER482  GLN483  LEU484  ILE485  ARG486  TYR487  ASP500  ALA502  ASN503  TRP566 
 TYR567  LEU569  PRO570  ALA571  VAL572  SER573  ASN574  PRO588  PHE589  SER590 
 GLY591  TRP592  TYR593  MET594  GLY595  THR596  GLU597  ILE598  ARG601  ASP602 
 ASP605  ARG608  ILE653  VAL654  TRP683  PRO687  SER691  PHE696  HIS697  TYR711 
 HEM750  H4B760 

> <Gold.Protein.RotatedAtoms>
  125.8998  242.0123  359.3009 H   0  0  0  0  0  0  0  0  0  0  0  0  # atno 8396 bound_to 8366
  115.8562  245.6944  367.2973 H   0  0  0  0  0  0  0  0  0  0  0  0  # atno 9046 bound_to 9030
  122.7071  242.3241  359.0449 H   0  0  0  0  0  0  0  0  0  0  0  0  # atno 9150 bound_to 9120
  123.5287  241.2251  358.1701 LP  0  0  0  0  0  0  0  0  0  0  0  0  # atno 13532 bound_to 9120
  123.3391  241.0163  359.7785 LP  0  0  0  0  0  0  0  0  0  0  0  0  # atno 13533 bound_to 9120
  115.6748  244.2064  366.6640 LP  0  0  0  0  0  0  0  0  0  0  0  0  # atno 13546 bound_to 9030
  114.7900  245.4539  366.0917 LP  0  0  0  0  0  0  0  0  0  0  0  0  # atno 13547 bound_to 9030
  127.0238  242.6067  360.3160 LP  0  0  0  0  0  0  0  0  0  0  0  0  # atno 13558 bound_to 8366
  125.4786  243.1266  360.4092 LP  0  0  0  0  0  0  0  0  0  0  0  0  # atno 13559 bound_to 8366

> <Gold.Score>
     Fitness  S(hb_ext) S(vdw_ext)  S(hb_int)    S(int)      intcor
     32.96       4.26      22.63       0.00      -2.41      -0.76

> <Gold.Goldscore.Fitness>
32.9599

> <Gold.Goldscore.Internal.Vdw>
-2.7980

> <Gold.Goldscore.Internal.Torsion>
-0.3797

> <Gold.Goldscore.External.Vdw>
22.6305

> <Gold.Goldscore.Internal.HBond>
0.0000

> <Gold.Goldscore.External.HBond>
4.2558

> <Gold.Goldscore.Internal.Correction>
-0.7650

> <Gold.Goldscore.Hbonds>
donor molecule, donor type, donor heavy atom, donor atom, acceptor molecule, acceptor atom, score
      P1  H  8366  8396       L1    17  0.01
      L1  H     8    22       P1  9396  0.71

> <Gold.Goldscore.Internal.Vdw.Weighted>
-2.7980

> <Gold.Goldscore.Internal.Torsion.Weighted>
-0.3797

> <Gold.Goldscore.External.Vdw.Weighted>
31.1169

> <Gold.Goldscore.Internal.HBond.Weighted>
0.0000

> <Gold.Goldscore.External.HBond.Weighted>
4.2558

> <Gold.Goldscore.Internal.Correction.Weighted>
-0.7650

> <Gold.Rescore>
     Score     S(PLP)   S(hbond)     S(cho)   S(metal)  DE(clash)   DE(tors)     intcor
     28.60     -29.21       0.60       0.00       0.00       2.01       0.20       ----

> <Gold.PLP.Fitness>
28.5980

> <Gold.PLP.PLP>
-29.2115

> <Gold.PLP.part.hbond>
-6.1924

> <Gold.PLP.part.metal>
0.0000

> <Gold.PLP.part.buried>
1.7798

> <Gold.PLP.part.nonpolar>
-27.3207

> <Gold.PLP.part.repulsive>
0.7438

> <Gold.PLP.ligand.clash>
2.0092

> <Gold.PLP.ligand.torsion>
0.2045

> <Gold.PLP.Chemscore.Hbond>
0.6016

> <Gold.PLP.Chemscore.CHOScore>
0.0000

> <Gold.PLP.Chemscore.Metal>
0.0000

> <Gold.Chemscore.Hbonds>
donor molecule, donor type, donor heavy atom, donor atom, acceptor molecule, acceptor atom, score
      L1  H     8    22       P1  9396  0.70
      P1  H  8366  8396       L1    17  0.43

> <Gold.PLP.Chemscore.Internal.Correction>
   9.000000E+99

