#       Name:                CT1002167954
#       Creating user name   hitesit
#       Creation time:       Sun Apr 16 22:51:11 2023


#       File generated by GOLD software.
#

@<TRIPOS>MOLECULE
CT1002167954|ligand_prepared|mol2|1|dock7
    29    30     1
SMALL
NO_CHARGES


@<TRIPOS>ATOM
      1 C1         123.1098 244.4069 356.0875 C.3            1 RES1               0.0000
      2 C2         122.1948 244.9463 357.2058 C.ar           1 RES1               0.0000
      3 C3         124.2518 245.4091 355.9476 C.2            1 RES1               0.0000
      4 C4         123.5525 243.0172 356.5317 C.2            1 RES1               0.0000
      5 C5         122.4067 244.2690 354.7170 C.3            1 RES1               0.0000
      6 C6         122.4463 244.6355 358.5388 C.ar           1 RES1               0.0000
      7 C7         121.0990 245.7566 356.9207 C.ar           1 RES1               0.0000
      8 N8         125.4741 245.0456 356.4311 N.am           1 RES1               0.0000
      9 O9         124.0734 246.5168 355.4563 O.2            1 RES1               0.0000
     10 N10        124.8812 242.8233 356.8049 N.am           1 RES1               0.0000
     11 O11        122.7600 242.0925 356.6636 O.2            1 RES1               0.0000
     12 C12        123.2128 243.4896 353.6900 C.3            1 RES1               0.0000
     13 C13        121.6336 245.1196 359.5505 C.ar           1 RES1               0.0000
     14 C14        120.2873 246.2394 357.9340 C.ar           1 RES1               0.0000
     15 C15        125.8571 243.7824 356.8044 C.2            1 RES1               0.0000
     16 C16        120.5539 245.9221 359.2489 C.ar           1 RES1               0.0000
     17 O17        127.0204 243.5419 357.1145 O.2            1 RES1               0.0000
     18 H18        121.4423 243.7671 354.8638 H              1 RES1               0.0000
     19 H19        122.2057 245.2720 354.3207 H              1 RES1               0.0000
     20 H20        123.2899 244.0033 358.7952 H              1 RES1               0.0000
     21 H21        120.8694 246.0183 355.8934 H              1 RES1               0.0000
     22 H22        126.1675 245.7811 356.5238 H              1 RES1               0.0000
     23 H23        125.1696 241.8763 357.0293 H              1 RES1               0.0000
     24 H24        122.6742 243.4225 352.7470 H              1 RES1               0.0000
     25 H25        124.1682 243.9745 353.5008 H              1 RES1               0.0000
     26 H26        123.4094 242.4785 354.0406 H              1 RES1               0.0000
     27 H27        121.8469 244.8658 360.5836 H              1 RES1               0.0000
     28 H28        119.4384 246.8702 357.6919 H              1 RES1               0.0000
     29 H29        119.9177 246.3015 360.0416 H              1 RES1               0.0000
@<TRIPOS>BOND
    1    1    2 1     
    2    1    3 1     
    3    1    4 1     
    4    1    5 1     
    5    2    6 ar    
    6    2    7 ar    
    7    3    8 1     
    8    3    9 2     
    9    4   10 1     
   10    4   11 2     
   11    5   12 1     
   12    5   18 1     
   13    5   19 1     
   14    6   13 ar    
   15    6   20 1     
   16    7   14 ar    
   17    7   21 1     
   18    8   15 1     
   19    8   22 1     
   20   10   15 1     
   21   10   23 1     
   22   12   24 1     
   23   12   25 1     
   24   12   26 1     
   25   13   16 ar    
   26   13   27 1     
   27   14   16 ar    
   28   14   28 1     
   29   15   17 2     
   30   16   29 1     
@<TRIPOS>SUBSTRUCTURE
      1 RES1           1
@<TRIPOS>SET
DONOR_HYDROGENS      STATIC     ATOMS    <user>   **** ""
2 22 23
ATOM$RED        STATIC     ATOMS    COLORGROUP SYSTEM
2 22 23
@<TRIPOS>COMMENT
> <Gold.Version>
2022.3.0

> <Gold.Id.Protein>
unknown|4uh5_clean|pdb

> <Gold.Protein.RotatedTorsions>
[ 9150 9120 9119 9117 ] final -102.15 input   60.01 | X-H torsion
[ 9046 9030 9029 9026 ] final   21.73 input   59.99 | X-H torsion
[ 8396 8366 8365 8363 ] final  -31.66 input   60.01 | X-H torsion

> <Gold.Protein.ActiveResidues>
 MET341  TRP414  CYS420  VAL421  GLY422  LEU429  LEU460  SER462  ALA463  ILE464 
 SER482  GLN483  LEU484  ILE485  ARG486  TYR487  ASP500  ALA502  ASN503  TRP566 
 TYR567  LEU569  PRO570  ALA571  VAL572  SER573  ASN574  PRO588  PHE589  SER590 
 GLY591  TRP592  TYR593  MET594  GLY595  THR596  GLU597  ILE598  ARG601  ASP602 
 ASP605  ARG608  ILE653  VAL654  TRP683  PRO687  SER691  PHE696  HIS697  TYR711 
 HEM750  H4B760 

> <Gold.Protein.RotatedAtoms>
  125.2730  242.5000  359.6479 H   0  0  0  0  0  0  0  0  0  0  0  0  # atno 8396 bound_to 8366
  114.7928  245.2025  366.0153 H   0  0  0  0  0  0  0  0  0  0  0  0  # atno 9046 bound_to 9030
  123.6821  240.7911  358.6852 H   0  0  0  0  0  0  0  0  0  0  0  0  # atno 9150 bound_to 9120
  122.9740  241.5902  359.9132 LP  0  0  0  0  0  0  0  0  0  0  0  0  # atno 13532 bound_to 9120
  122.9117  242.1952  358.3977 LP  0  0  0  0  0  0  0  0  0  0  0  0  # atno 13533 bound_to 9120
  115.6992  245.8745  367.1880 LP  0  0  0  0  0  0  0  0  0  0  0  0  # atno 13546 bound_to 9030
  115.8361  244.2810  366.8583 LP  0  0  0  0  0  0  0  0  0  0  0  0  # atno 13547 bound_to 9030
  126.8412  242.0665  359.6549 LP  0  0  0  0  0  0  0  0  0  0  0  0  # atno 13558 bound_to 8366
  126.2927  243.1755  360.7207 LP  0  0  0  0  0  0  0  0  0  0  0  0  # atno 13559 bound_to 8366

> <Gold.Score>
     Fitness  S(hb_ext) S(vdw_ext)  S(hb_int)    S(int)      intcor
     37.54       0.04      27.49       0.00      -0.29      -0.76

> <Gold.Goldscore.Fitness>
37.5449

> <Gold.Goldscore.Internal.Vdw>
-0.4890

> <Gold.Goldscore.Internal.Torsion>
-0.5672

> <Gold.Goldscore.External.Vdw>
27.4915

> <Gold.Goldscore.Internal.HBond>
0.0000

> <Gold.Goldscore.External.HBond>
0.0354

> <Gold.Goldscore.Internal.Correction>
-0.7650

> <Gold.Goldscore.Hbonds>
donor molecule, donor type, donor heavy atom, donor atom, acceptor molecule, acceptor atom, score
      P1  H  8366  8396       L1    11  0.02

> <Gold.Goldscore.Internal.Vdw.Weighted>
-0.4890

> <Gold.Goldscore.Internal.Torsion.Weighted>
-0.5672

> <Gold.Goldscore.External.Vdw.Weighted>
37.8007

> <Gold.Goldscore.Internal.HBond.Weighted>
0.0000

> <Gold.Goldscore.External.HBond.Weighted>
0.0354

> <Gold.Goldscore.Internal.Correction.Weighted>
-0.7650

> <Gold.Rescore>
     Score     S(PLP)   S(hbond)     S(cho)   S(metal)  DE(clash)   DE(tors)     intcor
     27.47     -29.45       0.13       0.00       0.00       0.43       0.97       ----

> <Gold.PLP.Fitness>
27.4665

> <Gold.PLP.PLP>
-29.4518

> <Gold.PLP.part.hbond>
-5.4736

> <Gold.PLP.part.metal>
0.0000

> <Gold.PLP.part.buried>
1.5083

> <Gold.PLP.part.nonpolar>
-30.2479

> <Gold.PLP.part.repulsive>
3.7749

> <Gold.PLP.ligand.clash>
0.4319

> <Gold.PLP.ligand.torsion>
0.9698

> <Gold.PLP.Chemscore.Hbond>
0.1287

> <Gold.PLP.Chemscore.CHOScore>
0.0000

> <Gold.PLP.Chemscore.Metal>
0.0000

> <Gold.Chemscore.Hbonds>
donor molecule, donor type, donor heavy atom, donor atom, acceptor molecule, acceptor atom, score
      L1  H    10    23       P1  9396  0.18
      P1  H  9561  9584       L1    17  0.66

> <Gold.PLP.Chemscore.Internal.Correction>
   9.000000E+99

