#       Name:                CT1002167954
#       Creating user name   hitesit
#       Creation time:       Sun Apr 16 22:51:14 2023


#       File generated by GOLD software.
#

@<TRIPOS>MOLECULE
CT1002167954|ligand_prepared|mol2|1|dock10
    29    30     1
SMALL
NO_CHARGES


@<TRIPOS>ATOM
      1 C1         124.4099 245.3825 355.6835 C.3            1 RES1               0.0000
      2 C2         125.0242 245.4807 354.2722 C.ar           1 RES1               0.0000
      3 C3         124.0551 246.8079 356.0964 C.2            1 RES1               0.0000
      4 C4         123.2079 244.4525 355.5617 C.2            1 RES1               0.0000
      5 C5         125.3682 244.7886 356.7420 C.3            1 RES1               0.0000
      6 C6         124.2275 245.3330 353.1407 C.ar           1 RES1               0.0000
      7 C7         126.3830 245.7209 354.0861 C.ar           1 RES1               0.0000
      8 N8         122.7366 247.1564 356.0950 N.am           1 RES1               0.0000
      9 O9         124.9218 247.6253 356.3808 O.2            1 RES1               0.0000
     10 N10        121.9622 244.9820 355.7754 N.am           1 RES1               0.0000
     11 O11        123.3269 243.2698 355.2663 O.2            1 RES1               0.0000
     12 C12        124.6804 244.3960 358.0401 C.3            1 RES1               0.0000
     13 C13        124.7690 245.4250 351.8692 C.ar           1 RES1               0.0000
     14 C14        126.9225 245.8123 352.8136 C.ar           1 RES1               0.0000
     15 C15        121.6698 246.2986 356.0064 C.2            1 RES1               0.0000
     16 C16        126.1165 245.6651 351.7048 C.ar           1 RES1               0.0000
     17 O17        120.5194 246.7076 356.1344 O.2            1 RES1               0.0000
     18 H18        125.8560 243.9019 356.3188 H              1 RES1               0.0000
     19 H19        126.1488 245.5263 356.9652 H              1 RES1               0.0000
     20 H20        123.1654 245.1411 353.2504 H              1 RES1               0.0000
     21 H21        127.0363 245.8390 354.9439 H              1 RES1               0.0000
     22 H22        122.5241 248.1464 356.1664 H              1 RES1               0.0000
     23 H23        121.1804 244.3347 355.7612 H              1 RES1               0.0000
     24 H24        125.3975 243.9852 358.7477 H              1 RES1               0.0000
     25 H25        124.2056 245.2594 358.5015 H              1 RES1               0.0000
     26 H26        123.9146 243.6446 357.8589 H              1 RES1               0.0000
     27 H27        124.1307 245.3070 350.9998 H              1 RES1               0.0000
     28 H28        127.9837 246.0008 352.6889 H              1 RES1               0.0000
     29 H29        126.5404 245.7375 350.7086 H              1 RES1               0.0000
@<TRIPOS>BOND
    1    1    2 1     
    2    1    3 1     
    3    1    4 1     
    4    1    5 1     
    5    2    6 ar    
    6    2    7 ar    
    7    3    8 1     
    8    3    9 2     
    9    4   10 1     
   10    4   11 2     
   11    5   12 1     
   12    5   18 1     
   13    5   19 1     
   14    6   13 ar    
   15    6   20 1     
   16    7   14 ar    
   17    7   21 1     
   18    8   15 1     
   19    8   22 1     
   20   10   15 1     
   21   10   23 1     
   22   12   24 1     
   23   12   25 1     
   24   12   26 1     
   25   13   16 ar    
   26   13   27 1     
   27   14   16 ar    
   28   14   28 1     
   29   15   17 2     
   30   16   29 1     
@<TRIPOS>SUBSTRUCTURE
      1 RES1           1
@<TRIPOS>SET
DONOR_HYDROGENS      STATIC     ATOMS    <user>   **** ""
2 22 23
ATOM$RED        STATIC     ATOMS    COLORGROUP SYSTEM
2 22 23
@<TRIPOS>COMMENT
> <Gold.Version>
2022.3.0

> <Gold.Id.Protein>
unknown|4uh5_clean|pdb

> <Gold.Protein.RotatedTorsions>
[ 9150 9120 9119 9117 ] final  -53.23 input   60.01 | X-H torsion
[ 9046 9030 9029 9026 ] final  -96.15 input   59.99 | X-H torsion
[ 8396 8366 8365 8363 ] final -118.07 input   60.01 | X-H torsion

> <Gold.Protein.ActiveResidues>
 MET341  TRP414  CYS420  VAL421  GLY422  LEU429  LEU460  SER462  ALA463  ILE464 
 SER482  GLN483  LEU484  ILE485  ARG486  TYR487  ASP500  ALA502  ASN503  TRP566 
 TYR567  LEU569  PRO570  ALA571  VAL572  SER573  ASN574  PRO588  PHE589  SER590 
 GLY591  TRP592  TYR593  MET594  GLY595  THR596  GLU597  ILE598  ARG601  ASP602 
 ASP605  ARG608  ILE653  VAL654  TRP683  PRO687  SER691  PHE696  HIS697  TYR711 
 HEM750  H4B760 

> <Gold.Protein.RotatedAtoms>
  126.3930  241.9400  359.3757 H   0  0  0  0  0  0  0  0  0  0  0  0  # atno 8396 bound_to 8366
  115.6772  245.8889  367.1643 H   0  0  0  0  0  0  0  0  0  0  0  0  # atno 9046 bound_to 9030
  123.4861  241.3035  358.1375 H   0  0  0  0  0  0  0  0  0  0  0  0  # atno 9150 bound_to 9120
  123.3861  240.9547  359.7237 LP  0  0  0  0  0  0  0  0  0  0  0  0  # atno 13532 bound_to 9120
  122.6970  242.3147  359.1388 LP  0  0  0  0  0  0  0  0  0  0  0  0  # atno 13533 bound_to 9120
  115.8553  244.2959  366.8834 LP  0  0  0  0  0  0  0  0  0  0  0  0  # atno 13546 bound_to 9030
  114.7896  245.1685  366.0062 LP  0  0  0  0  0  0  0  0  0  0  0  0  # atno 13547 bound_to 9030
  126.7689  242.9374  360.6050 LP  0  0  0  0  0  0  0  0  0  0  0  0  # atno 13558 bound_to 8366
  125.2366  242.8687  360.0448 LP  0  0  0  0  0  0  0  0  0  0  0  0  # atno 13559 bound_to 8366

> <Gold.Score>
     Fitness  S(hb_ext) S(vdw_ext)  S(hb_int)    S(int)      intcor
     35.87       5.21      22.77       0.00      -0.65      -0.76

> <Gold.Goldscore.Fitness>
35.8738

> <Gold.Goldscore.Internal.Vdw>
-0.7769

> <Gold.Goldscore.Internal.Torsion>
-0.6351

> <Gold.Goldscore.External.Vdw>
22.7717

> <Gold.Goldscore.Internal.HBond>
0.0000

> <Gold.Goldscore.External.HBond>
5.2098

> <Gold.Goldscore.Internal.Correction>
-0.7650

> <Gold.Goldscore.Hbonds>
donor molecule, donor type, donor heavy atom, donor atom, acceptor molecule, acceptor atom, score
      L1  H    10    23       P1  9234  0.87

> <Gold.Goldscore.Internal.Vdw.Weighted>
-0.7769

> <Gold.Goldscore.Internal.Torsion.Weighted>
-0.6351

> <Gold.Goldscore.External.Vdw.Weighted>
31.3112

> <Gold.Goldscore.Internal.HBond.Weighted>
0.0000

> <Gold.Goldscore.External.HBond.Weighted>
5.2098

> <Gold.Goldscore.Internal.Correction.Weighted>
-0.7650

> <Gold.Rescore>
     Score     S(PLP)   S(hbond)     S(cho)   S(metal)  DE(clash)   DE(tors)     intcor
     26.22     -26.31       0.78       0.00       0.00       0.68       0.88       ----

> <Gold.PLP.Fitness>
26.2229

> <Gold.PLP.PLP>
-26.3101

> <Gold.PLP.part.hbond>
-3.0000

> <Gold.PLP.part.metal>
0.0000

> <Gold.PLP.part.buried>
-4.7139

> <Gold.PLP.part.nonpolar>
-21.0991

> <Gold.PLP.part.repulsive>
0.6150

> <Gold.PLP.ligand.clash>
0.6811

> <Gold.PLP.ligand.torsion>
0.8790

> <Gold.PLP.Chemscore.Hbond>
0.7840

> <Gold.PLP.Chemscore.CHOScore>
0.0000

> <Gold.PLP.Chemscore.Metal>
0.0000

> <Gold.Chemscore.Hbonds>
donor molecule, donor type, donor heavy atom, donor atom, acceptor molecule, acceptor atom, score
      L1  H    10    23       P1  9234  1.00

> <Gold.PLP.Chemscore.Internal.Correction>
   9.000000E+99

