#       Name:                CT1002167954
#       Creating user name   hitesit
#       Creation time:       Sun Apr 16 22:51:08 2023


#       File generated by GOLD software.
#

@<TRIPOS>MOLECULE
CT1002167954|ligand_prepared|mol2|1|dock3
    29    30     1
SMALL
NO_CHARGES


@<TRIPOS>ATOM
      1 C1         124.1796 244.1796 356.9723 C.3            1 RES1               0.0000
      2 C2         122.8265 244.6685 357.5281 C.ar           1 RES1               0.0000
      3 C3         123.9227 242.8011 356.3706 C.2            1 RES1               0.0000
      4 C4         124.6282 245.2269 355.9592 C.2            1 RES1               0.0000
      5 C5         125.2853 244.0487 358.0456 C.3            1 RES1               0.0000
      6 C6         121.7200 244.7909 356.6930 C.ar           1 RES1               0.0000
      7 C7         122.6690 244.9979 358.8717 C.ar           1 RES1               0.0000
      8 N8         123.8993 242.6997 355.0108 N.am           1 RES1               0.0000
      9 O9         123.7046 241.8255 357.0783 O.2            1 RES1               0.0000
     10 N10        124.7031 244.8556 354.6423 N.am           1 RES1               0.0000
     11 O11        124.9014 246.3750 356.2871 O.2            1 RES1               0.0000
     12 C12        126.6120 243.5437 357.5006 C.3            1 RES1               0.0000
     13 C13        120.4994 245.2239 357.1839 C.ar           1 RES1               0.0000
     14 C14        121.4474 245.4309 359.3605 C.ar           1 RES1               0.0000
     15 C15        124.3295 243.6482 354.1180 C.2            1 RES1               0.0000
     16 C16        120.3621 245.5437 358.5178 C.ar           1 RES1               0.0000
     17 O17        124.3745 243.4076 352.9150 O.2            1 RES1               0.0000
     18 H18        125.4447 245.0298 358.5098 H              1 RES1               0.0000
     19 H19        124.9395 243.3604 358.8267 H              1 RES1               0.0000
     20 H20        121.8095 244.5461 355.6399 H              1 RES1               0.0000
     21 H21        123.5093 244.9178 359.5529 H              1 RES1               0.0000
     22 H22        123.5276 241.8391 354.6217 H              1 RES1               0.0000
     23 H23        125.0716 245.5430 353.9926 H              1 RES1               0.0000
     24 H24        127.3523 243.4704 358.2945 H              1 RES1               0.0000
     25 H25        126.4956 242.5585 357.0538 H              1 RES1               0.0000
     26 H26        126.9978 244.2180 356.7388 H              1 RES1               0.0000
     27 H27        119.6486 245.3123 356.5163 H              1 RES1               0.0000
     28 H28        121.3442 245.6822 360.4109 H              1 RES1               0.0000
     29 H29        119.4057 245.8825 358.9022 H              1 RES1               0.0000
@<TRIPOS>BOND
    1    1    2 1     
    2    1    3 1     
    3    1    4 1     
    4    1    5 1     
    5    2    6 ar    
    6    2    7 ar    
    7    3    8 1     
    8    3    9 2     
    9    4   10 1     
   10    4   11 2     
   11    5   12 1     
   12    5   18 1     
   13    5   19 1     
   14    6   13 ar    
   15    6   20 1     
   16    7   14 ar    
   17    7   21 1     
   18    8   15 1     
   19    8   22 1     
   20   10   15 1     
   21   10   23 1     
   22   12   24 1     
   23   12   25 1     
   24   12   26 1     
   25   13   16 ar    
   26   13   27 1     
   27   14   16 ar    
   28   14   28 1     
   29   15   17 2     
   30   16   29 1     
@<TRIPOS>SUBSTRUCTURE
      1 RES1           1
@<TRIPOS>SET
DONOR_HYDROGENS      STATIC     ATOMS    <user>   **** ""
2 22 23
ATOM$RED        STATIC     ATOMS    COLORGROUP SYSTEM
2 22 23
@<TRIPOS>COMMENT
> <Gold.Version>
2022.3.0

> <Gold.Id.Protein>
unknown|4uh5_clean|pdb

> <Gold.Protein.RotatedTorsions>
[ 9150 9120 9119 9117 ] final -148.15 input   60.01 | X-H torsion
[ 9046 9030 9029 9026 ] final  163.89 input   59.99 | X-H torsion
[ 8396 8366 8365 8363 ] final  124.81 input   60.01 | X-H torsion

> <Gold.Protein.ActiveResidues>
 MET341  TRP414  CYS420  VAL421  GLY422  LEU429  LEU460  SER462  ALA463  ILE464 
 SER482  GLN483  LEU484  ILE485  ARG486  TYR487  ASP500  ALA502  ASN503  TRP566 
 TYR567  LEU569  PRO570  ALA571  VAL572  SER573  ASN574  PRO588  PHE589  SER590 
 GLY591  TRP592  TYR593  MET594  GLY595  THR596  GLU597  ILE598  ARG601  ASP602 
 ASP605  ARG608  ILE653  VAL654  TRP683  PRO687  SER691  PHE696  HIS697  TYR711 
 HEM750  H4B760 

> <Gold.Protein.RotatedAtoms>
  126.7964  242.9059  360.5819 H   0  0  0  0  0  0  0  0  0  0  0  0  # atno 8396 bound_to 8366
  116.0040  244.4942  367.0968 H   0  0  0  0  0  0  0  0  0  0  0  0  # atno 9046 bound_to 9030
  123.5573  240.7651  359.4056 H   0  0  0  0  0  0  0  0  0  0  0  0  # atno 9150 bound_to 9120
  122.7181  242.1549  359.5151 LP  0  0  0  0  0  0  0  0  0  0  0  0  # atno 13532 bound_to 9120
  123.2933  241.6567  358.0702 LP  0  0  0  0  0  0  0  0  0  0  0  0  # atno 13533 bound_to 9120
  114.8644  244.8492  365.9907 LP  0  0  0  0  0  0  0  0  0  0  0  0  # atno 13546 bound_to 9030
  115.4516  246.0193  366.9668 LP  0  0  0  0  0  0  0  0  0  0  0  0  # atno 13547 bound_to 9030
  125.2485  242.8973  360.0805 LP  0  0  0  0  0  0  0  0  0  0  0  0  # atno 13558 bound_to 8366
  126.3506  241.9358  359.3541 LP  0  0  0  0  0  0  0  0  0  0  0  0  # atno 13559 bound_to 8366

> <Gold.Score>
     Fitness  S(hb_ext) S(vdw_ext)  S(hb_int)    S(int)      intcor
     37.72       0.48      27.11       0.00      -0.04      -0.76

> <Gold.Goldscore.Fitness>
37.7181

> <Gold.Goldscore.Internal.Vdw>
-0.4330

> <Gold.Goldscore.Internal.Torsion>
-0.3691

> <Gold.Goldscore.External.Vdw>
27.1103

> <Gold.Goldscore.Internal.HBond>
0.0000

> <Gold.Goldscore.External.HBond>
0.4786

> <Gold.Goldscore.Internal.Correction>
-0.7650

> <Gold.Goldscore.Hbonds>
donor molecule, donor type, donor heavy atom, donor atom, acceptor molecule, acceptor atom, score
      L1  H     8    22       P1  9230  0.24

> <Gold.Goldscore.Internal.Vdw.Weighted>
-0.4330

> <Gold.Goldscore.Internal.Torsion.Weighted>
-0.3691

> <Gold.Goldscore.External.Vdw.Weighted>
37.2767

> <Gold.Goldscore.Internal.HBond.Weighted>
0.0000

> <Gold.Goldscore.External.HBond.Weighted>
0.4786

> <Gold.Goldscore.Internal.Correction.Weighted>
-0.7650

> <Gold.Rescore>
     Score     S(PLP)   S(hbond)     S(cho)   S(metal)  DE(clash)   DE(tors)     intcor
     32.86     -33.60       0.00       0.00       0.00       0.00       0.37       ----

> <Gold.PLP.Fitness>
32.8626

> <Gold.PLP.PLP>
-33.5951

> <Gold.PLP.part.hbond>
-2.7633

> <Gold.PLP.part.metal>
0.0000

> <Gold.PLP.part.buried>
-4.4932

> <Gold.PLP.part.nonpolar>
-27.9610

> <Gold.PLP.part.repulsive>
1.2143

> <Gold.PLP.ligand.clash>
0.0000

> <Gold.PLP.ligand.torsion>
0.3663

> <Gold.PLP.Chemscore.Hbond>
0.0000

> <Gold.PLP.Chemscore.CHOScore>
0.0000

> <Gold.PLP.Chemscore.Metal>
0.0000

> <Gold.Chemscore.Hbonds>
donor molecule, donor type, donor heavy atom, donor atom, acceptor molecule, acceptor atom, score
      L1  H     8    22       P1  9230  0.58

> <Gold.PLP.Chemscore.Internal.Correction>
   9.000000E+99

