#       Name:                CT1002167954
#       Creating user name   hitesit
#       Creation time:       Sun Apr 16 22:51:13 2023


#       File generated by GOLD software.
#

@<TRIPOS>MOLECULE
CT1002167954|ligand_prepared|mol2|1|dock9
    29    30     1
SMALL
NO_CHARGES


@<TRIPOS>ATOM
      1 C1         123.4102 245.0543 355.5715 C.3            1 RES1               0.0000
      2 C2         123.8623 245.4784 354.1592 C.ar           1 RES1               0.0000
      3 C3         123.5181 243.5329 355.6170 C.2            1 RES1               0.0000
      4 C4         124.3337 245.7730 356.5489 C.2            1 RES1               0.0000
      5 C5         121.9546 245.4537 355.9078 C.3            1 RES1               0.0000
      6 C6         125.1479 245.9654 353.9432 C.ar           1 RES1               0.0000
      7 C7         123.0074 245.3861 353.0641 C.ar           1 RES1               0.0000
      8 N8         124.5465 242.9936 356.3321 N.am           1 RES1               0.0000
      9 O9         122.7361 242.8181 355.0024 O.2            1 RES1               0.0000
     10 N10        125.1812 245.0112 357.3099 N.am           1 RES1               0.0000
     11 O11        124.3469 246.9932 356.6548 O.2            1 RES1               0.0000
     12 C12        121.4900 244.9819 357.2767 C.3            1 RES1               0.0000
     13 C13        125.5649 246.3436 352.6777 C.ar           1 RES1               0.0000
     14 C14        123.4263 245.7651 351.7995 C.ar           1 RES1               0.0000
     15 C15        125.3512 243.6563 357.2238 C.2            1 RES1               0.0000
     16 C16        124.7047 246.2434 351.6051 C.ar           1 RES1               0.0000
     17 O17        126.1727 243.0486 357.9042 O.2            1 RES1               0.0000
     18 H18        121.8690 246.5464 355.8632 H              1 RES1               0.0000
     19 H19        121.2878 245.0337 355.1446 H              1 RES1               0.0000
     20 H20        125.8381 246.0537 354.7756 H              1 RES1               0.0000
     21 H21        121.9969 245.0137 353.1936 H              1 RES1               0.0000
     22 H22        124.7348 242.0062 356.1908 H              1 RES1               0.0000
     23 H23        125.7367 245.4995 358.0052 H              1 RES1               0.0000
     24 H24        120.4627 245.2884 357.4622 H              1 RES1               0.0000
     25 H25        121.5381 243.8973 357.3476 H              1 RES1               0.0000
     26 H26        122.1158 245.4010 358.0619 H              1 RES1               0.0000
     27 H27        126.5716 246.7207 352.5302 H              1 RES1               0.0000
     28 H28        122.7458 245.6851 350.9583 H              1 RES1               0.0000
     29 H29        125.0317 246.5394 350.6138 H              1 RES1               0.0000
@<TRIPOS>BOND
    1    1    2 1     
    2    1    3 1     
    3    1    4 1     
    4    1    5 1     
    5    2    6 ar    
    6    2    7 ar    
    7    3    8 1     
    8    3    9 2     
    9    4   10 1     
   10    4   11 2     
   11    5   12 1     
   12    5   18 1     
   13    5   19 1     
   14    6   13 ar    
   15    6   20 1     
   16    7   14 ar    
   17    7   21 1     
   18    8   15 1     
   19    8   22 1     
   20   10   15 1     
   21   10   23 1     
   22   12   24 1     
   23   12   25 1     
   24   12   26 1     
   25   13   16 ar    
   26   13   27 1     
   27   14   16 ar    
   28   14   28 1     
   29   15   17 2     
   30   16   29 1     
@<TRIPOS>SUBSTRUCTURE
      1 RES1           1
@<TRIPOS>SET
DONOR_HYDROGENS      STATIC     ATOMS    <user>   **** ""
2 22 23
ATOM$RED        STATIC     ATOMS    COLORGROUP SYSTEM
2 22 23
@<TRIPOS>COMMENT
> <Gold.Version>
2022.3.0

> <Gold.Id.Protein>
unknown|4uh5_clean|pdb

> <Gold.Protein.RotatedTorsions>
[ 9150 9120 9119 9117 ] final   60.99 input   60.01 | X-H torsion
[ 9046 9030 9029 9026 ] final -114.33 input   59.99 | X-H torsion
[ 8396 8366 8365 8363 ] final  -86.83 input   60.01 | X-H torsion

> <Gold.Protein.ActiveResidues>
 MET341  TRP414  CYS420  VAL421  GLY422  LEU429  LEU460  SER462  ALA463  ILE464 
 SER482  GLN483  LEU484  ILE485  ARG486  TYR487  ASP500  ALA502  ASN503  TRP566 
 TYR567  LEU569  PRO570  ALA571  VAL572  SER573  ASN574  PRO588  PHE589  SER590 
 GLY591  TRP592  TYR593  MET594  GLY595  THR596  GLU597  ILE598  ARG601  ASP602 
 ASP605  ARG608  ILE653  VAL654  TRP683  PRO687  SER691  PHE696  HIS697  TYR711 
 HEM750  H4B760 

> <Gold.Protein.RotatedAtoms>
  125.8998  242.0123  359.3009 H   0  0  0  0  0  0  0  0  0  0  0  0  # atno 8396 bound_to 8366
  115.8562  245.6944  367.2973 H   0  0  0  0  0  0  0  0  0  0  0  0  # atno 9046 bound_to 9030
  122.7071  242.3241  359.0449 H   0  0  0  0  0  0  0  0  0  0  0  0  # atno 9150 bound_to 9120
  123.5287  241.2251  358.1701 LP  0  0  0  0  0  0  0  0  0  0  0  0  # atno 13532 bound_to 9120
  123.3391  241.0163  359.7785 LP  0  0  0  0  0  0  0  0  0  0  0  0  # atno 13533 bound_to 9120
  115.6748  244.2064  366.6640 LP  0  0  0  0  0  0  0  0  0  0  0  0  # atno 13546 bound_to 9030
  114.7900  245.4539  366.0917 LP  0  0  0  0  0  0  0  0  0  0  0  0  # atno 13547 bound_to 9030
  127.0238  242.6067  360.3160 LP  0  0  0  0  0  0  0  0  0  0  0  0  # atno 13558 bound_to 8366
  125.4786  243.1266  360.4092 LP  0  0  0  0  0  0  0  0  0  0  0  0  # atno 13559 bound_to 8366

> <Gold.Score>
     Fitness  S(hb_ext) S(vdw_ext)  S(hb_int)    S(int)      intcor
     32.96       4.26      22.63       0.00      -2.41      -0.76

> <Gold.Goldscore.Fitness>
32.9599

> <Gold.Goldscore.Internal.Vdw>
-2.7980

> <Gold.Goldscore.Internal.Torsion>
-0.3797

> <Gold.Goldscore.External.Vdw>
22.6305

> <Gold.Goldscore.Internal.HBond>
0.0000

> <Gold.Goldscore.External.HBond>
4.2558

> <Gold.Goldscore.Internal.Correction>
-0.7650

> <Gold.Goldscore.Hbonds>
donor molecule, donor type, donor heavy atom, donor atom, acceptor molecule, acceptor atom, score
      P1  H  8366  8396       L1    17  0.01
      L1  H     8    22       P1  9396  0.71

> <Gold.Goldscore.Internal.Vdw.Weighted>
-2.7980

> <Gold.Goldscore.Internal.Torsion.Weighted>
-0.3797

> <Gold.Goldscore.External.Vdw.Weighted>
31.1169

> <Gold.Goldscore.Internal.HBond.Weighted>
0.0000

> <Gold.Goldscore.External.HBond.Weighted>
4.2558

> <Gold.Goldscore.Internal.Correction.Weighted>
-0.7650

> <Gold.Rescore>
     Score     S(PLP)   S(hbond)     S(cho)   S(metal)  DE(clash)   DE(tors)     intcor
     28.60     -29.21       0.60       0.00       0.00       2.01       0.20       ----

> <Gold.PLP.Fitness>
28.5980

> <Gold.PLP.PLP>
-29.2115

> <Gold.PLP.part.hbond>
-6.1924

> <Gold.PLP.part.metal>
0.0000

> <Gold.PLP.part.buried>
1.7798

> <Gold.PLP.part.nonpolar>
-27.3207

> <Gold.PLP.part.repulsive>
0.7438

> <Gold.PLP.ligand.clash>
2.0092

> <Gold.PLP.ligand.torsion>
0.2045

> <Gold.PLP.Chemscore.Hbond>
0.6016

> <Gold.PLP.Chemscore.CHOScore>
0.0000

> <Gold.PLP.Chemscore.Metal>
0.0000

> <Gold.Chemscore.Hbonds>
donor molecule, donor type, donor heavy atom, donor atom, acceptor molecule, acceptor atom, score
      L1  H     8    22       P1  9396  0.70
      P1  H  8366  8396       L1    17  0.43

> <Gold.PLP.Chemscore.Internal.Correction>
   9.000000E+99

