#       Name:                CT1002167954
#       Creating user name   hitesit
#       Creation time:       Sun Apr 16 22:51:10 2023


#       File generated by GOLD software.
#

@<TRIPOS>MOLECULE
CT1002167954|ligand_prepared|mol2|1|dock6
    29    30     1
SMALL
NO_CHARGES


@<TRIPOS>ATOM
      1 C1         117.4086 246.4144 358.2684 C.3            1 RES1               0.0000
      2 C2         118.9355 246.2250 358.3752 C.ar           1 RES1               0.0000
      3 C3         116.8808 245.2108 357.4931 C.2            1 RES1               0.0000
      4 C4         116.8895 246.5093 359.6989 C.2            1 RES1               0.0000
      5 C5         116.9894 247.7020 357.5216 C.3            1 RES1               0.0000
      6 C6         119.7294 246.2112 357.2323 C.ar           1 RES1               0.0000
      7 C7         119.5638 246.0659 359.6075 C.ar           1 RES1               0.0000
      8 N8         116.2065 244.2543 358.1935 N.am           1 RES1               0.0000
      9 O9         117.0873 245.0835 356.2926 O.2            1 RES1               0.0000
     10 N10        116.0692 245.5095 360.1519 N.am           1 RES1               0.0000
     11 O11        117.1968 247.4323 360.4431 O.2            1 RES1               0.0000
     12 C12        117.8490 248.9113 357.8545 C.3            1 RES1               0.0000
     13 C13        121.1020 246.0472 357.3183 C.ar           1 RES1               0.0000
     14 C14        120.9366 245.9018 359.6912 C.ar           1 RES1               0.0000
     15 C15        115.7290 244.3706 359.4741 C.2            1 RES1               0.0000
     16 C16        121.7065 245.8929 358.5476 C.ar           1 RES1               0.0000
     17 O17        115.0304 243.4906 359.9690 O.2            1 RES1               0.0000
     18 H18        117.0430 247.5172 356.4416 H              1 RES1               0.0000
     19 H19        115.9460 247.9311 357.7712 H              1 RES1               0.0000
     20 H20        119.2712 246.3287 356.2559 H              1 RES1               0.0000
     21 H21        118.9779 246.0686 360.5203 H              1 RES1               0.0000
     22 H22        116.0421 243.3710 357.7213 H              1 RES1               0.0000
     23 H23        115.6757 245.6249 361.0804 H              1 RES1               0.0000
     24 H24        117.5123 249.7872 357.3039 H              1 RES1               0.0000
     25 H25        117.7993 249.1392 358.9172 H              1 RES1               0.0000
     26 H26        118.8897 248.7277 357.5955 H              1 RES1               0.0000
     27 H27        121.7034 246.0395 356.4152 H              1 RES1               0.0000
     28 H28        121.4080 245.7801 360.6608 H              1 RES1               0.0000
     29 H29        122.7819 245.7648 358.6148 H              1 RES1               0.0000
@<TRIPOS>BOND
    1    1    2 1     
    2    1    3 1     
    3    1    4 1     
    4    1    5 1     
    5    2    6 ar    
    6    2    7 ar    
    7    3    8 1     
    8    3    9 2     
    9    4   10 1     
   10    4   11 2     
   11    5   12 1     
   12    5   18 1     
   13    5   19 1     
   14    6   13 ar    
   15    6   20 1     
   16    7   14 ar    
   17    7   21 1     
   18    8   15 1     
   19    8   22 1     
   20   10   15 1     
   21   10   23 1     
   22   12   24 1     
   23   12   25 1     
   24   12   26 1     
   25   13   16 ar    
   26   13   27 1     
   27   14   16 ar    
   28   14   28 1     
   29   15   17 2     
   30   16   29 1     
@<TRIPOS>SUBSTRUCTURE
      1 RES1           1
@<TRIPOS>SET
DONOR_HYDROGENS      STATIC     ATOMS    <user>   **** ""
2 22 23
ATOM$RED        STATIC     ATOMS    COLORGROUP SYSTEM
2 22 23
@<TRIPOS>COMMENT
> <Gold.Version>
2022.3.0

> <Gold.Id.Protein>
unknown|4uh5_clean|pdb

> <Gold.Protein.RotatedTorsions>
[ 9150 9120 9119 9117 ] final   36.50 input   60.01 | X-H torsion
[ 9046 9030 9029 9026 ] final    0.58 input   59.99 | X-H torsion
[ 8396 8366 8365 8363 ] final   32.24 input   60.01 | X-H torsion

> <Gold.Protein.ActiveResidues>
 MET341  TRP414  CYS420  VAL421  GLY422  LEU429  LEU460  SER462  ALA463  ILE464 
 SER482  GLN483  LEU484  ILE485  ARG486  TYR487  ASP500  ALA502  ASN503  TRP566 
 TYR567  LEU569  PRO570  ALA571  VAL572  SER573  ASN574  PRO588  PHE589  SER590 
 GLY591  TRP592  TYR593  MET594  GLY595  THR596  GLU597  ILE598  ARG601  ASP602 
 ASP605  ARG608  ILE653  VAL654  TRP683  PRO687  SER691  PHE696  HIS697  TYR711 
 HEM750  H4B760 

> <Gold.Protein.RotatedAtoms>
  125.4724  243.1152  360.3981 H   0  0  0  0  0  0  0  0  0  0  0  0  # atno 8396 bound_to 8366
  114.8083  245.5266  366.1286 H   0  0  0  0  0  0  0  0  0  0  0  0  # atno 9046 bound_to 9030
  122.7955  242.3016  358.6583 H   0  0  0  0  0  0  0  0  0  0  0  0  # atno 9150 bound_to 9120
  123.6499  240.9374  358.4201 LP  0  0  0  0  0  0  0  0  0  0  0  0  # atno 13532 bound_to 9120
  123.1287  241.3267  359.9179 LP  0  0  0  0  0  0  0  0  0  0  0  0  # atno 13533 bound_to 9120
  115.9005  245.6317  367.3303 LP  0  0  0  0  0  0  0  0  0  0  0  0  # atno 13546 bound_to 9030
  115.6192  244.1975  366.6019 LP  0  0  0  0  0  0  0  0  0  0  0  0  # atno 13547 bound_to 9030
  125.9132  242.0049  359.2934 LP  0  0  0  0  0  0  0  0  0  0  0  0  # atno 13558 bound_to 8366
  127.0197  242.6172  360.3265 LP  0  0  0  0  0  0  0  0  0  0  0  0  # atno 13559 bound_to 8366

> <Gold.Score>
     Fitness  S(hb_ext) S(vdw_ext)  S(hb_int)    S(int)      intcor
     48.51       0.00      38.63       0.00      -4.60      -0.76

> <Gold.Goldscore.Fitness>
48.5111

> <Gold.Goldscore.Internal.Vdw>
-4.4227

> <Gold.Goldscore.Internal.Torsion>
-0.9427

> <Gold.Goldscore.External.Vdw>
38.6266

> <Gold.Goldscore.Internal.HBond>
0.0000

> <Gold.Goldscore.External.HBond>
0.0000

> <Gold.Goldscore.Internal.Correction>
-0.7650

> <Gold.Goldscore.Internal.Vdw.Weighted>
-4.4227

> <Gold.Goldscore.Internal.Torsion.Weighted>
-0.9427

> <Gold.Goldscore.External.Vdw.Weighted>
53.1116

> <Gold.Goldscore.Internal.HBond.Weighted>
0.0000

> <Gold.Goldscore.External.HBond.Weighted>
0.0000

> <Gold.Goldscore.Internal.Correction.Weighted>
-0.7650

> <Gold.Rescore>
     Score     S(PLP)   S(hbond)     S(cho)   S(metal)  DE(clash)   DE(tors)     intcor
     43.05     -44.77       0.00       0.00       0.00       0.88       0.42       ----

> <Gold.PLP.Fitness>
43.0483

> <Gold.PLP.PLP>
-44.7697

> <Gold.PLP.part.hbond>
-3.5347

> <Gold.PLP.part.metal>
0.0000

> <Gold.PLP.part.buried>
7.4014

> <Gold.PLP.part.nonpolar>
-54.3307

> <Gold.PLP.part.repulsive>
3.3492

> <Gold.PLP.ligand.clash>
0.8755

> <Gold.PLP.ligand.torsion>
0.4229

> <Gold.PLP.Chemscore.Hbond>
0.0000

> <Gold.PLP.Chemscore.CHOScore>
0.0000

> <Gold.PLP.Chemscore.Metal>
0.0000

> <Gold.PLP.Chemscore.Internal.Correction>
   9.000000E+99

