#       Name:                CT1002167954
#       Creating user name   hitesit
#       Creation time:       Sun Apr 16 22:51:09 2023


#       File generated by GOLD software.
#

@<TRIPOS>MOLECULE
CT1002167954|ligand_prepared|mol2|1|dock4
    29    30     1
SMALL
NO_CHARGES


@<TRIPOS>ATOM
      1 C1         123.5238 244.5590 356.0404 C.3            1 RES1               0.0000
      2 C2         122.6121 244.9133 357.2329 C.ar           1 RES1               0.0000
      3 C3         124.2229 245.8537 355.6361 C.2            1 RES1               0.0000
      4 C4         124.4691 243.4698 356.5350 C.2            1 RES1               0.0000
      5 C5         122.7612 244.0085 354.8128 C.3            1 RES1               0.0000
      6 C6         121.2931 245.3053 357.0245 C.ar           1 RES1               0.0000
      7 C7         123.0741 244.8505 358.5448 C.ar           1 RES1               0.0000
      8 N8         125.5419 245.9861 355.9563 N.am           1 RES1               0.0000
      9 O9         123.6161 246.7607 355.0799 O.2            1 RES1               0.0000
     10 N10        125.8043 243.7668 356.6165 N.am           1 RES1               0.0000
     11 O11        124.0676 242.3623 356.8706 O.2            1 RES1               0.0000
     12 C12        123.6594 243.3496 353.7779 C.3            1 RES1               0.0000
     13 C13        120.4651 245.6202 358.0892 C.ar           1 RES1               0.0000
     14 C14        122.2445 245.1660 359.6081 C.ar           1 RES1               0.0000
     15 C15        126.3796 244.9854 356.3788 C.2            1 RES1               0.0000
     16 C16        120.9400 245.5504 359.3816 C.ar           1 RES1               0.0000
     17 O17        127.5812 245.1891 356.5265 O.2            1 RES1               0.0000
     18 H18        122.0214 243.2751 355.1565 H              1 RES1               0.0000
     19 H19        122.2185 244.8336 354.3351 H              1 RES1               0.0000
     20 H20        120.9025 245.3685 356.0143 H              1 RES1               0.0000
     21 H21        124.0971 244.5516 358.7468 H              1 RES1               0.0000
     22 H22        125.9425 246.9151 355.8741 H              1 RES1               0.0000
     23 H23        126.4272 243.0094 356.8786 H              1 RES1               0.0000
     24 H24        123.0743 242.9809 352.9380 H              1 RES1               0.0000
     25 H25        124.3918 244.0577 353.3958 H              1 RES1               0.0000
     26 H26        124.1958 242.5085 354.2123 H              1 RES1               0.0000
     27 H27        119.4397 245.9235 357.9055 H              1 RES1               0.0000
     28 H28        122.6226 245.1102 360.6235 H              1 RES1               0.0000
     29 H29        120.2910 245.7967 360.2155 H              1 RES1               0.0000
@<TRIPOS>BOND
    1    1    2 1     
    2    1    3 1     
    3    1    4 1     
    4    1    5 1     
    5    2    6 ar    
    6    2    7 ar    
    7    3    8 1     
    8    3    9 2     
    9    4   10 1     
   10    4   11 2     
   11    5   12 1     
   12    5   18 1     
   13    5   19 1     
   14    6   13 ar    
   15    6   20 1     
   16    7   14 ar    
   17    7   21 1     
   18    8   15 1     
   19    8   22 1     
   20   10   15 1     
   21   10   23 1     
   22   12   24 1     
   23   12   25 1     
   24   12   26 1     
   25   13   16 ar    
   26   13   27 1     
   27   14   16 ar    
   28   14   28 1     
   29   15   17 2     
   30   16   29 1     
@<TRIPOS>SUBSTRUCTURE
      1 RES1           1
@<TRIPOS>SET
DONOR_HYDROGENS      STATIC     ATOMS    <user>   **** ""
2 22 23
ATOM$RED        STATIC     ATOMS    COLORGROUP SYSTEM
2 22 23
@<TRIPOS>COMMENT
> <Gold.Version>
2022.3.0

> <Gold.Id.Protein>
unknown|4uh5_clean|pdb

> <Gold.Protein.RotatedTorsions>
[ 9150 9120 9119 9117 ] final  -17.54 input   60.01 | X-H torsion
[ 9046 9030 9029 9026 ] final   96.56 input   59.99 | X-H torsion
[ 8396 8366 8365 8363 ] final  -51.61 input   60.01 | X-H torsion

> <Gold.Protein.ActiveResidues>
 MET341  TRP414  CYS420  VAL421  GLY422  LEU429  LEU460  SER462  ALA463  ILE464 
 SER482  GLN483  LEU484  ILE485  ARG486  TYR487  ASP500  ALA502  ASN503  TRP566 
 TYR567  LEU569  PRO570  ALA571  VAL572  SER573  ASN574  PRO588  PHE589  SER590 
 GLY591  TRP592  TYR593  MET594  GLY595  THR596  GLU597  ILE598  ARG601  ASP602 
 ASP605  ARG608  ILE653  VAL654  TRP683  PRO687  SER691  PHE696  HIS697  TYR711 
 HEM750  H4B760 

> <Gold.Protein.RotatedAtoms>
  125.4318  242.2879  359.4611 H   0  0  0  0  0  0  0  0  0  0  0  0  # atno 8396 bound_to 8366
  115.3484  244.2597  366.3269 H   0  0  0  0  0  0  0  0  0  0  0  0  # atno 9046 bound_to 9030
  123.1998  241.7996  358.1034 H   0  0  0  0  0  0  0  0  0  0  0  0  # atno 9150 bound_to 9120
  123.6167  240.7209  359.2482 LP  0  0  0  0  0  0  0  0  0  0  0  0  # atno 13532 bound_to 9120
  122.7548  242.0488  359.6486 LP  0  0  0  0  0  0  0  0  0  0  0  0  # atno 13533 bound_to 9120
  114.9232  245.8303  366.3464 LP  0  0  0  0  0  0  0  0  0  0  0  0  # atno 13546 bound_to 9030
  116.0528  245.2744  367.3863 LP  0  0  0  0  0  0  0  0  0  0  0  0  # atno 13547 bound_to 9030
  127.0007  242.2302  359.8882 LP  0  0  0  0  0  0  0  0  0  0  0  0  # atno 13558 bound_to 8366
  125.9731  243.2254  360.6757 LP  0  0  0  0  0  0  0  0  0  0  0  0  # atno 13559 bound_to 8366

> <Gold.Score>
     Fitness  S(hb_ext) S(vdw_ext)  S(hb_int)    S(int)      intcor
     39.54       1.11      28.39       0.00      -0.61      -0.76

> <Gold.Goldscore.Fitness>
39.5412

> <Gold.Goldscore.Internal.Vdw>
-0.7079

> <Gold.Goldscore.Internal.Torsion>
-0.6649

> <Gold.Goldscore.External.Vdw>
28.3918

> <Gold.Goldscore.Internal.HBond>
0.0000

> <Gold.Goldscore.External.HBond>
1.1103

> <Gold.Goldscore.Internal.Correction>
-0.7650

> <Gold.Goldscore.Hbonds>
donor molecule, donor type, donor heavy atom, donor atom, acceptor molecule, acceptor atom, score
      P1  H  9120  9150       L1    11  0.41
      P1  H  8366  8396       L1    11  0.14

> <Gold.Goldscore.Internal.Vdw.Weighted>
-0.7079

> <Gold.Goldscore.Internal.Torsion.Weighted>
-0.6649

> <Gold.Goldscore.External.Vdw.Weighted>
39.0387

> <Gold.Goldscore.Internal.HBond.Weighted>
0.0000

> <Gold.Goldscore.External.HBond.Weighted>
1.1103

> <Gold.Goldscore.Internal.Correction.Weighted>
-0.7650

> <Gold.Rescore>
     Score     S(PLP)   S(hbond)     S(cho)   S(metal)  DE(clash)   DE(tors)     intcor
     30.41     -29.56       1.16       0.00       0.00       0.00       1.32       ----

> <Gold.PLP.Fitness>
30.4089

> <Gold.PLP.PLP>
-29.5558

> <Gold.PLP.part.hbond>
-5.7953

> <Gold.PLP.part.metal>
0.0000

> <Gold.PLP.part.buried>
1.9313

> <Gold.PLP.part.nonpolar>
-29.7903

> <Gold.PLP.part.repulsive>
2.4985

> <Gold.PLP.ligand.clash>
0.0000

> <Gold.PLP.ligand.torsion>
1.3168

> <Gold.PLP.Chemscore.Hbond>
1.1622

> <Gold.PLP.Chemscore.CHOScore>
0.0000

> <Gold.PLP.Chemscore.Metal>
0.0000

> <Gold.Chemscore.Hbonds>
donor molecule, donor type, donor heavy atom, donor atom, acceptor molecule, acceptor atom, score
      P1  H  9120  9150       L1    11  1.00

> <Gold.PLP.Chemscore.Internal.Correction>
   9.000000E+99

