#       Name:                CT1002167954
#       Creating user name   hitesit
#       Creation time:       Sun Apr 16 22:51:06 2023


#       File generated by GOLD software.
#

@<TRIPOS>MOLECULE
CT1002167954|ligand_prepared|mol2|1|dock1
    29    30     1
SMALL
NO_CHARGES


@<TRIPOS>ATOM
      1 C1         123.8111 245.1313 356.0267 C.3            1 RES1               0.0000
      2 C2         123.6001 245.1728 354.4994 C.ar           1 RES1               0.0000
      3 C3         123.5027 246.5347 356.5401 C.2            1 RES1               0.0000
      4 C4         122.8720 244.0541 356.5580 C.2            1 RES1               0.0000
      5 C5         125.2518 244.7595 356.4485 C.3            1 RES1               0.0000
      6 C6         124.5687 245.7225 353.6649 C.ar           1 RES1               0.0000
      7 C7         122.4454 244.6638 353.9112 C.ar           1 RES1               0.0000
      8 N8         122.3310 246.7178 357.2136 N.am           1 RES1               0.0000
      9 O9         124.2573 247.4747 356.3230 O.2            1 RES1               0.0000
     10 N10        121.8437 244.4448 357.3751 N.am           1 RES1               0.0000
     11 O11        123.0032 242.8726 356.2629 O.2            1 RES1               0.0000
     12 C12        125.3912 244.4252 357.9253 C.3            1 RES1               0.0000
     13 C13        124.3908 245.7594 352.2919 C.ar           1 RES1               0.0000
     14 C14        122.2693 244.7019 352.5378 C.ar           1 RES1               0.0000
     15 C15        121.5124 245.7315 357.7022 C.2            1 RES1               0.0000
     16 C16        123.2413 245.2488 351.7274 C.ar           1 RES1               0.0000
     17 O17        120.5397 246.0069 358.3988 O.2            1 RES1               0.0000
     18 H18        125.5806 243.8954 355.8582 H              1 RES1               0.0000
     19 H19        125.9167 245.5995 356.2124 H              1 RES1               0.0000
     20 H20        125.4787 246.1313 354.0913 H              1 RES1               0.0000
     21 H21        121.6668 244.2297 354.5292 H              1 RES1               0.0000
     22 H22        122.0362 247.6767 357.3681 H              1 RES1               0.0000
     23 H23        121.2724 243.7083 357.7769 H              1 RES1               0.0000
     24 H24        126.4211 244.1717 358.1678 H              1 RES1               0.0000
     25 H25        125.0964 245.2717 358.5420 H              1 RES1               0.0000
     26 H26        124.7623 243.5776 358.1899 H              1 RES1               0.0000
     27 H27        125.1582 246.1921 351.6585 H              1 RES1               0.0000
     28 H28        121.3628 244.2994 352.0980 H              1 RES1               0.0000
     29 H29        123.1023 245.2774 350.6517 H              1 RES1               0.0000
@<TRIPOS>BOND
    1    1    2 1     
    2    1    3 1     
    3    1    4 1     
    4    1    5 1     
    5    2    6 ar    
    6    2    7 ar    
    7    3    8 1     
    8    3    9 2     
    9    4   10 1     
   10    4   11 2     
   11    5   12 1     
   12    5   18 1     
   13    5   19 1     
   14    6   13 ar    
   15    6   20 1     
   16    7   14 ar    
   17    7   21 1     
   18    8   15 1     
   19    8   22 1     
   20   10   15 1     
   21   10   23 1     
   22   12   24 1     
   23   12   25 1     
   24   12   26 1     
   25   13   16 ar    
   26   13   27 1     
   27   14   16 ar    
   28   14   28 1     
   29   15   17 2     
   30   16   29 1     
@<TRIPOS>SUBSTRUCTURE
      1 RES1           1
@<TRIPOS>SET
DONOR_HYDROGENS      STATIC     ATOMS    <user>   **** ""
2 22 23
ATOM$RED        STATIC     ATOMS    COLORGROUP SYSTEM
2 22 23
@<TRIPOS>COMMENT
> <Gold.Version>
2022.3.0

> <Gold.Id.Protein>
unknown|4uh5_clean|pdb

> <Gold.Protein.RotatedTorsions>
[ 9150 9120 9119 9117 ] final   83.63 input   60.01 | X-H torsion
[ 9046 9030 9029 9026 ] final  173.96 input   59.99 | X-H torsion
[ 8396 8366 8365 8363 ] final   99.98 input   60.01 | X-H torsion

> <Gold.Protein.ActiveResidues>
 MET341  TRP414  CYS420  VAL421  GLY422  LEU429  LEU460  SER462  ALA463  ILE464 
 SER482  GLN483  LEU484  ILE485  ARG486  TYR487  ASP500  ALA502  ASN503  TRP566 
 TYR567  LEU569  PRO570  ALA571  VAL572  SER573  ASN574  PRO588  PHE589  SER590 
 GLY591  TRP592  TYR593  MET594  GLY595  THR596  GLU597  ILE598  ARG601  ASP602 
 ASP605  ARG608  ILE653  VAL654  TRP683  PRO687  SER691  PHE696  HIS697  TYR711 
 HEM750  H4B760 

> <Gold.Protein.RotatedAtoms>
  126.4699  243.1071  360.7037 H   0  0  0  0  0  0  0  0  0  0  0  0  # atno 8396 bound_to 8366
  116.0542  244.6211  367.1883 H   0  0  0  0  0  0  0  0  0  0  0  0  # atno 9046 bound_to 9030
  122.7024  242.2163  359.3961 H   0  0  0  0  0  0  0  0  0  0  0  0  # atno 9150 bound_to 9120
  123.3619  241.5403  358.0710 LP  0  0  0  0  0  0  0  0  0  0  0  0  # atno 13532 bound_to 9120
  123.5106  240.8097  359.5239 LP  0  0  0  0  0  0  0  0  0  0  0  0  # atno 13533 bound_to 9120
  114.9292  244.6990  366.0150 LP  0  0  0  0  0  0  0  0  0  0  0  0  # atno 13546 bound_to 9030
  115.3362  246.0418  366.8504 LP  0  0  0  0  0  0  0  0  0  0  0  0  # atno 13547 bound_to 9030
  125.2210  242.6319  359.7754 LP  0  0  0  0  0  0  0  0  0  0  0  0  # atno 13558 bound_to 8366
  126.7071  241.9985  359.5366 LP  0  0  0  0  0  0  0  0  0  0  0  0  # atno 13559 bound_to 8366

> <Gold.Score>
     Fitness  S(hb_ext) S(vdw_ext)  S(hb_int)    S(int)      intcor
     33.42       0.00      24.98       0.00      -0.93      -0.89

> <Gold.Goldscore.Fitness>
33.4194

> <Gold.Goldscore.Internal.Vdw>
-1.2102

> <Gold.Goldscore.Internal.Torsion>
-0.6044

> <Gold.Goldscore.External.Vdw>
24.9796

> <Gold.Goldscore.Internal.HBond>
0.0000

> <Gold.Goldscore.External.HBond>
0.0000

> <Gold.Goldscore.Internal.Correction>
-0.8869

> <Gold.Goldscore.Internal.Vdw.Weighted>
-1.2102

> <Gold.Goldscore.Internal.Torsion.Weighted>
-0.6044

> <Gold.Goldscore.External.Vdw.Weighted>
34.3470

> <Gold.Goldscore.Internal.HBond.Weighted>
0.0000

> <Gold.Goldscore.External.HBond.Weighted>
0.0000

> <Gold.Goldscore.Internal.Correction.Weighted>
-0.8869

> <Gold.Rescore>
     Score     S(PLP)   S(hbond)     S(cho)   S(metal)  DE(clash)   DE(tors)     intcor
     31.08     -32.60       0.00       0.00       0.00       1.43       0.04       ----

> <Gold.PLP.Fitness>
31.0787

> <Gold.PLP.PLP>
-32.5963

> <Gold.PLP.part.hbond>
-2.8055

> <Gold.PLP.part.metal>
0.0000

> <Gold.PLP.part.buried>
-7.1530

> <Gold.PLP.part.nonpolar>
-24.1002

> <Gold.PLP.part.repulsive>
0.4661

> <Gold.PLP.ligand.clash>
1.4337

> <Gold.PLP.ligand.torsion>
0.0420

> <Gold.PLP.Chemscore.Hbond>
0.0000

> <Gold.PLP.Chemscore.CHOScore>
0.0000

> <Gold.PLP.Chemscore.Metal>
0.0000

> <Gold.PLP.Chemscore.Internal.Correction>
   9.000000E+99

