#       Name:                CT1002167954
#       Creating user name   hitesit
#       Creation time:       Sun Apr 16 22:51:07 2023


#       File generated by GOLD software.
#

@<TRIPOS>MOLECULE
CT1002167954|ligand_prepared|mol2|1|dock2
    29    30     1
SMALL
NO_CHARGES


@<TRIPOS>ATOM
      1 C1         120.7793 245.7130 357.8048 C.3            1 RES1               0.0000
      2 C2         119.3267 245.2009 357.8851 C.ar           1 RES1               0.0000
      3 C3         121.3200 245.6935 359.2315 C.2            1 RES1               0.0000
      4 C4         121.5100 244.7757 356.8497 C.2            1 RES1               0.0000
      5 C5         120.9049 247.1517 357.2516 C.3            1 RES1               0.0000
      6 C6         119.0388 243.8532 357.6912 C.ar           1 RES1               0.0000
      7 C7         118.2663 246.0620 358.1544 C.ar           1 RES1               0.0000
      8 N8         122.2150 244.7165 359.5547 N.am           1 RES1               0.0000
      9 O9         120.9370 246.4988 360.0711 O.2            1 RES1               0.0000
     10 N10        122.5127 243.9932 357.3596 N.am           1 RES1               0.0000
     11 O11        121.2153 244.6955 355.6635 O.2            1 RES1               0.0000
     12 C12        122.3350 247.5687 356.9467 C.3            1 RES1               0.0000
     13 C13        117.7383 243.3829 357.7667 C.ar           1 RES1               0.0000
     14 C14        116.9664 245.5896 358.2293 C.ar           1 RES1               0.0000
     15 C15        122.8777 243.8988 358.6750 C.2            1 RES1               0.0000
     16 C16        116.7014 244.2505 358.0362 C.ar           1 RES1               0.0000
     17 O17        123.7531 243.1313 359.0645 O.2            1 RES1               0.0000
     18 H18        120.3108 247.2298 356.3327 H              1 RES1               0.0000
     19 H19        120.4821 247.8500 357.9845 H              1 RES1               0.0000
     20 H20        119.8415 243.1559 357.4757 H              1 RES1               0.0000
     21 H21        118.4511 247.1197 358.3087 H              1 RES1               0.0000
     22 H22        122.4095 244.5814 360.5417 H              1 RES1               0.0000
     23 H23        123.0355 243.4290 356.6974 H              1 RES1               0.0000
     24 H24        122.3665 248.5858 356.5616 H              1 RES1               0.0000
     25 H25        122.9486 247.5271 357.8443 H              1 RES1               0.0000
     26 H26        122.7783 246.9106 356.2023 H              1 RES1               0.0000
     27 H27        117.5348 242.3283 357.6127 H              1 RES1               0.0000
     28 H28        116.1534 246.2762 358.4410 H              1 RES1               0.0000
     29 H29        115.6827 243.8817 358.0957 H              1 RES1               0.0000
@<TRIPOS>BOND
    1    1    2 1     
    2    1    3 1     
    3    1    4 1     
    4    1    5 1     
    5    2    6 ar    
    6    2    7 ar    
    7    3    8 1     
    8    3    9 2     
    9    4   10 1     
   10    4   11 2     
   11    5   12 1     
   12    5   18 1     
   13    5   19 1     
   14    6   13 ar    
   15    6   20 1     
   16    7   14 ar    
   17    7   21 1     
   18    8   15 1     
   19    8   22 1     
   20   10   15 1     
   21   10   23 1     
   22   12   24 1     
   23   12   25 1     
   24   12   26 1     
   25   13   16 ar    
   26   13   27 1     
   27   14   16 ar    
   28   14   28 1     
   29   15   17 2     
   30   16   29 1     
@<TRIPOS>SUBSTRUCTURE
      1 RES1           1
@<TRIPOS>SET
DONOR_HYDROGENS      STATIC     ATOMS    <user>   **** ""
2 22 23
ATOM$RED        STATIC     ATOMS    COLORGROUP SYSTEM
2 22 23
@<TRIPOS>COMMENT
> <Gold.Version>
2022.3.0

> <Gold.Id.Protein>
unknown|4uh5_clean|pdb

> <Gold.Protein.RotatedTorsions>
[ 9150 9120 9119 9117 ] final -138.01 input   60.01 | X-H torsion
[ 9046 9030 9029 9026 ] final   24.49 input   59.99 | X-H torsion
[ 8396 8366 8365 8363 ] final   -8.72 input   60.01 | X-H torsion

> <Gold.Protein.ActiveResidues>
 MET341  TRP414  CYS420  VAL421  GLY422  LEU429  LEU460  SER462  ALA463  ILE464 
 SER482  GLN483  LEU484  ILE485  ARG486  TYR487  ASP500  ALA502  ASN503  TRP566 
 TYR567  LEU569  PRO570  ALA571  VAL572  SER573  ASN574  PRO588  PHE589  SER590 
 GLY591  TRP592  TYR593  MET594  GLY595  THR596  GLU597  ILE598  ARG601  ASP602 
 ASP605  ARG608  ILE653  VAL654  TRP683  PRO687  SER691  PHE696  HIS697  TYR711 
 HEM750  H4B760 

> <Gold.Protein.RotatedAtoms>
  125.2185  242.7540  359.9144 H   0  0  0  0  0  0  0  0  0  0  0  0  # atno 8396 bound_to 8366
  114.7974  245.1584  366.0070 H   0  0  0  0  0  0  0  0  0  0  0  0  # atno 9046 bound_to 9030
  123.6096  240.7266  359.2533 H   0  0  0  0  0  0  0  0  0  0  0  0  # atno 9150 bound_to 9120
  122.7528  242.0539  359.6431 LP  0  0  0  0  0  0  0  0  0  0  0  0  # atno 13532 bound_to 9120
  123.2059  241.7964  358.0955 LP  0  0  0  0  0  0  0  0  0  0  0  0  # atno 13533 bound_to 9120
  115.6697  245.8993  367.1638 LP  0  0  0  0  0  0  0  0  0  0  0  0  # atno 13546 bound_to 9030
  115.8610  244.3007  366.8908 LP  0  0  0  0  0  0  0  0  0  0  0  0  # atno 13547 bound_to 9030
  126.5544  241.9554  359.4404 LP  0  0  0  0  0  0  0  0  0  0  0  0  # atno 13558 bound_to 8366
  126.6343  243.0307  360.6667 LP  0  0  0  0  0  0  0  0  0  0  0  0  # atno 13559 bound_to 8366

> <Gold.Score>
     Fitness  S(hb_ext) S(vdw_ext)  S(hb_int)    S(int)      intcor
     41.68       2.00      29.31       0.00      -0.62      -0.80

> <Gold.Goldscore.Fitness>
41.6785

> <Gold.Goldscore.Internal.Vdw>
-0.8963

> <Gold.Goldscore.Internal.Torsion>
-0.5217

> <Gold.Goldscore.External.Vdw>
29.3060

> <Gold.Goldscore.Internal.HBond>
0.0000

> <Gold.Goldscore.External.HBond>
2.0000

> <Gold.Goldscore.Internal.Correction>
-0.8007

> <Gold.Goldscore.Hbonds>
donor molecule, donor type, donor heavy atom, donor atom, acceptor molecule, acceptor atom, score
      P1  H  8366  8396       L1    17  1.00

> <Gold.Goldscore.Internal.Vdw.Weighted>
-0.8963

> <Gold.Goldscore.Internal.Torsion.Weighted>
-0.5217

> <Gold.Goldscore.External.Vdw.Weighted>
40.2958

> <Gold.Goldscore.Internal.HBond.Weighted>
0.0000

> <Gold.Goldscore.External.HBond.Weighted>
2.0000

> <Gold.Goldscore.Internal.Correction.Weighted>
-0.8007

> <Gold.Rescore>
     Score     S(PLP)   S(hbond)     S(cho)   S(metal)  DE(clash)   DE(tors)     intcor
     29.31     -27.76       1.36       0.00       0.00       1.58       0.47       ----

> <Gold.PLP.Fitness>
29.3079

> <Gold.PLP.PLP>
-27.7592

> <Gold.PLP.part.hbond>
-3.9940

> <Gold.PLP.part.metal>
0.0000

> <Gold.PLP.part.buried>
11.8174

> <Gold.PLP.part.nonpolar>
-44.5447

> <Gold.PLP.part.repulsive>
6.1067

> <Gold.PLP.ligand.clash>
1.5770

> <Gold.PLP.ligand.torsion>
0.4715

> <Gold.PLP.Chemscore.Hbond>
1.3563

> <Gold.PLP.Chemscore.CHOScore>
0.0000

> <Gold.PLP.Chemscore.Metal>
0.0000

> <Gold.Chemscore.Hbonds>
donor molecule, donor type, donor heavy atom, donor atom, acceptor molecule, acceptor atom, score
      P1  H  8366  8396       L1    17  1.00

> <Gold.PLP.Chemscore.Internal.Correction>
   9.000000E+99

