#       Name:                CT1002167954
#       Creating user name   hitesit
#       Creation time:       Sun Apr 16 22:51:12 2023


#       File generated by GOLD software.
#

@<TRIPOS>MOLECULE
CT1002167954|ligand_prepared|mol2|1|dock8
    29    30     1
SMALL
NO_CHARGES


@<TRIPOS>ATOM
      1 C1         121.2898 245.8228 357.6070 C.3            1 RES1               0.0000
      2 C2         119.7504 245.8720 357.5263 C.ar           1 RES1               0.0000
      3 C3         121.6682 246.4358 358.9521 C.2            1 RES1               0.0000
      4 C4         121.6780 244.3557 357.4607 C.2            1 RES1               0.0000
      5 C5         121.9999 246.6189 356.4873 C.3            1 RES1               0.0000
      6 C6         118.9962 244.7103 357.6621 C.ar           1 RES1               0.0000
      7 C7         119.0713 247.0698 357.3196 C.ar           1 RES1               0.0000
      8 N8         122.0923 245.5906 359.9347 N.am           1 RES1               0.0000
      9 O9         121.5584 247.6379 359.1600 O.2            1 RES1               0.0000
     10 N10        122.2612 243.7356 358.5345 N.am           1 RES1               0.0000
     11 O11        121.4690 243.7265 356.4308 O.2            1 RES1               0.0000
     12 C12        123.5165 246.5168 356.5297 C.3            1 RES1               0.0000
     13 C13        117.6132 244.7452 357.5966 C.ar           1 RES1               0.0000
     14 C14        117.6882 247.1024 357.2542 C.ar           1 RES1               0.0000
     15 C15        122.4579 244.2781 359.7752 C.2            1 RES1               0.0000
     16 C16        116.9582 245.9411 357.3931 C.ar           1 RES1               0.0000
     17 O17        122.9390 243.6398 360.7070 O.2            1 RES1               0.0000
     18 H18        121.6483 246.2513 355.5153 H              1 RES1               0.0000
     19 H19        121.7147 247.6750 356.5695 H              1 RES1               0.0000
     20 H20        119.4942 243.7596 357.8205 H              1 RES1               0.0000
     21 H21        119.6250 247.9957 357.2065 H              1 RES1               0.0000
     22 H22        122.1422 245.9693 360.8751 H              1 RES1               0.0000
     23 H23        122.5781 242.7813 358.3962 H              1 RES1               0.0000
     24 H24        123.9645 247.0933 355.7231 H              1 RES1               0.0000
     25 H25        123.9025 246.8973 357.4731 H              1 RES1               0.0000
     26 H26        123.8365 245.4822 356.4252 H              1 RES1               0.0000
     27 H27        117.0434 243.8282 357.7052 H              1 RES1               0.0000
     28 H28        117.1769 248.0458 357.0932 H              1 RES1               0.0000
     29 H29        115.8748 245.9682 357.3422 H              1 RES1               0.0000
@<TRIPOS>BOND
    1    1    2 1     
    2    1    3 1     
    3    1    4 1     
    4    1    5 1     
    5    2    6 ar    
    6    2    7 ar    
    7    3    8 1     
    8    3    9 2     
    9    4   10 1     
   10    4   11 2     
   11    5   12 1     
   12    5   18 1     
   13    5   19 1     
   14    6   13 ar    
   15    6   20 1     
   16    7   14 ar    
   17    7   21 1     
   18    8   15 1     
   19    8   22 1     
   20   10   15 1     
   21   10   23 1     
   22   12   24 1     
   23   12   25 1     
   24   12   26 1     
   25   13   16 ar    
   26   13   27 1     
   27   14   16 ar    
   28   14   28 1     
   29   15   17 2     
   30   16   29 1     
@<TRIPOS>SUBSTRUCTURE
      1 RES1           1
@<TRIPOS>SET
DONOR_HYDROGENS      STATIC     ATOMS    <user>   **** ""
2 22 23
ATOM$RED        STATIC     ATOMS    COLORGROUP SYSTEM
2 22 23
@<TRIPOS>COMMENT
> <Gold.Version>
2022.3.0

> <Gold.Id.Protein>
unknown|4uh5_clean|pdb

> <Gold.Protein.RotatedTorsions>
[ 9150 9120 9119 9117 ] final -158.07 input   60.01 | X-H torsion
[ 9046 9030 9029 9026 ] final -133.17 input   59.99 | X-H torsion
[ 8396 8366 8365 8363 ] final  -10.11 input   60.01 | X-H torsion

> <Gold.Protein.ActiveResidues>
 MET341  TRP414  CYS420  VAL421  GLY422  LEU429  LEU460  SER462  ALA463  ILE464 
 SER482  GLN483  LEU484  ILE485  ARG486  TYR487  ASP500  ALA502  ASN503  TRP566 
 TYR567  LEU569  PRO570  ALA571  VAL572  SER573  ASN574  PRO588  PHE589  SER590 
 GLY591  TRP592  TYR593  MET594  GLY595  THR596  GLU597  ILE598  ARG601  ASP602 
 ASP605  ARG608  ILE653  VAL654  TRP683  PRO687  SER691  PHE696  HIS697  TYR711 
 HEM750  H4B760 

> <Gold.Protein.RotatedAtoms>
  125.2176  242.7390  359.8975 H   0  0  0  0  0  0  0  0  0  0  0  0  # atno 8396 bound_to 8366
  115.9978  245.4328  367.3704 H   0  0  0  0  0  0  0  0  0  0  0  0  # atno 9046 bound_to 9030
  123.4950  240.8256  359.5421 H   0  0  0  0  0  0  0  0  0  0  0  0  # atno 9150 bound_to 9120
  122.6985  242.2346  359.3742 LP  0  0  0  0  0  0  0  0  0  0  0  0  # atno 13532 bound_to 9120
  123.3756  241.5161  358.0735 LP  0  0  0  0  0  0  0  0  0  0  0  0  # atno 13533 bound_to 9120
  115.4635  244.2098  366.4393 LP  0  0  0  0  0  0  0  0  0  0  0  0  # atno 13546 bound_to 9030
  114.8587  245.7139  366.2428 LP  0  0  0  0  0  0  0  0  0  0  0  0  # atno 13547 bound_to 9030
  126.5741  241.9594  359.4511 LP  0  0  0  0  0  0  0  0  0  0  0  0  # atno 13558 bound_to 8366
  126.6155  243.0417  360.6731 LP  0  0  0  0  0  0  0  0  0  0  0  0  # atno 13559 bound_to 8366

> <Gold.Score>
     Fitness  S(hb_ext) S(vdw_ext)  S(hb_int)    S(int)      intcor
     35.37       1.09      26.38       0.00      -1.99      -0.76

> <Gold.Goldscore.Fitness>
35.3731

> <Gold.Goldscore.Internal.Vdw>
-2.3787

> <Gold.Goldscore.Internal.Torsion>
-0.3784

> <Gold.Goldscore.External.Vdw>
26.3809

> <Gold.Goldscore.Internal.HBond>
0.0000

> <Gold.Goldscore.External.HBond>
1.0915

> <Gold.Goldscore.Internal.Correction>
-0.7650

> <Gold.Goldscore.Hbonds>
donor molecule, donor type, donor heavy atom, donor atom, acceptor molecule, acceptor atom, score
      P1  H  8366  8396       L1    17  0.05
      L1  H    10    23       P1  9120  0.49

> <Gold.Goldscore.Internal.Vdw.Weighted>
-2.3787

> <Gold.Goldscore.Internal.Torsion.Weighted>
-0.3784

> <Gold.Goldscore.External.Vdw.Weighted>
36.2738

> <Gold.Goldscore.Internal.HBond.Weighted>
0.0000

> <Gold.Goldscore.External.HBond.Weighted>
1.0915

> <Gold.Goldscore.Internal.Correction.Weighted>
-0.7650

> <Gold.Rescore>
     Score     S(PLP)   S(hbond)     S(cho)   S(metal)  DE(clash)   DE(tors)     intcor
     27.22     -26.39       1.00       0.00       0.00       1.95       0.12       ----

> <Gold.PLP.Fitness>
27.2150

> <Gold.PLP.PLP>
-26.3906

> <Gold.PLP.part.hbond>
-1.6374

> <Gold.PLP.part.metal>
0.0000

> <Gold.PLP.part.buried>
12.4512

> <Gold.PLP.part.nonpolar>
-44.8675

> <Gold.PLP.part.repulsive>
6.4721

> <Gold.PLP.ligand.clash>
1.9453

> <Gold.PLP.ligand.torsion>
0.1151

> <Gold.PLP.Chemscore.Hbond>
1.0000

> <Gold.PLP.Chemscore.CHOScore>
0.0000

> <Gold.PLP.Chemscore.Metal>
0.0000

> <Gold.Chemscore.Hbonds>
donor molecule, donor type, donor heavy atom, donor atom, acceptor molecule, acceptor atom, score
      L1  H    10    23       P1  9120  0.91

> <Gold.PLP.Chemscore.Internal.Correction>
   9.000000E+99

