#       Name:                CT1002167954
#       Creating user name   hitesit
#       Creation time:       Sun Apr 16 22:51:09 2023


#       File generated by GOLD software.
#

@<TRIPOS>MOLECULE
CT1002167954|ligand_prepared|mol2|1|dock5
    29    30     1
SMALL
NO_CHARGES


@<TRIPOS>ATOM
      1 C1         124.2100 244.6786 356.7159 C.3            1 RES1               0.0000
      2 C2         122.8892 245.2189 357.3010 C.ar           1 RES1               0.0000
      3 C3         123.8641 243.3673 356.0166 C.2            1 RES1               0.0000
      4 C4         124.7374 245.7617 355.7814 C.2            1 RES1               0.0000
      5 C5         125.2956 244.3961 357.7805 C.3            1 RES1               0.0000
      6 C6         122.0580 246.0347 356.5391 C.ar           1 RES1               0.0000
      7 C7         122.4880 244.9087 358.5977 C.ar           1 RES1               0.0000
      8 N8         123.8447 243.3643 354.6530 N.am           1 RES1               0.0000
      9 O9         123.5741 242.3612 356.6523 O.2            1 RES1               0.0000
     10 N10        124.7972 245.4805 354.4416 N.am           1 RES1               0.0000
     11 O11        125.0860 246.8621 356.1912 O.2            1 RES1               0.0000
     12 C12        126.6783 244.1523 357.1965 C.3            1 RES1               0.0000
     13 C13        120.8674 246.5203 357.0538 C.ar           1 RES1               0.0000
     14 C14        121.2970 245.3956 359.1105 C.ar           1 RES1               0.0000
     15 C15        124.3459 244.3419 353.8315 C.2            1 RES1               0.0000
     16 C16        120.4859 246.2008 358.3395 C.ar           1 RES1               0.0000
     17 O17        124.3840 244.1846 352.6145 O.2            1 RES1               0.0000
     18 H18        125.3478 245.2502 358.4668 H              1 RES1               0.0000
     19 H19        124.9981 243.5155 358.3631 H              1 RES1               0.0000
     20 H20        122.3429 246.2988 355.5261 H              1 RES1               0.0000
     21 H21        123.1108 244.2779 359.2228 H              1 RES1               0.0000
     22 H22        123.4180 242.5611 354.2024 H              1 RES1               0.0000
     23 H23        125.2171 246.1851 353.8437 H              1 RES1               0.0000
     24 H24        127.4018 243.9592 357.9858 H              1 RES1               0.0000
     25 H25        126.6688 243.2938 356.5281 H              1 RES1               0.0000
     26 H26        127.0164 245.0183 356.6312 H              1 RES1               0.0000
     27 H27        120.2333 247.1548 356.4434 H              1 RES1               0.0000
     28 H28        121.0010 245.1421 360.1231 H              1 RES1               0.0000
     29 H29        119.5530 246.5811 358.7423 H              1 RES1               0.0000
@<TRIPOS>BOND
    1    1    2 1     
    2    1    3 1     
    3    1    4 1     
    4    1    5 1     
    5    2    6 ar    
    6    2    7 ar    
    7    3    8 1     
    8    3    9 2     
    9    4   10 1     
   10    4   11 2     
   11    5   12 1     
   12    5   18 1     
   13    5   19 1     
   14    6   13 ar    
   15    6   20 1     
   16    7   14 ar    
   17    7   21 1     
   18    8   15 1     
   19    8   22 1     
   20   10   15 1     
   21   10   23 1     
   22   12   24 1     
   23   12   25 1     
   24   12   26 1     
   25   13   16 ar    
   26   13   27 1     
   27   14   16 ar    
   28   14   28 1     
   29   15   17 2     
   30   16   29 1     
@<TRIPOS>SUBSTRUCTURE
      1 RES1           1
@<TRIPOS>SET
DONOR_HYDROGENS      STATIC     ATOMS    <user>   **** ""
2 22 23
ATOM$RED        STATIC     ATOMS    COLORGROUP SYSTEM
2 22 23
@<TRIPOS>COMMENT
> <Gold.Version>
2022.3.0

> <Gold.Id.Protein>
unknown|4uh5_clean|pdb

> <Gold.Protein.RotatedTorsions>
[ 9150 9120 9119 9117 ] final  -20.58 input   60.01 | X-H torsion
[ 9046 9030 9029 9026 ] final  -97.66 input   59.99 | X-H torsion
[ 8396 8366 8365 8363 ] final   14.61 input   60.01 | X-H torsion

> <Gold.Protein.ActiveResidues>
 MET341  TRP414  CYS420  VAL421  GLY422  LEU429  LEU460  SER462  ALA463  ILE464 
 SER482  GLN483  LEU484  ILE485  ARG486  TYR487  ASP500  ALA502  ASN503  TRP566 
 TYR567  LEU569  PRO570  ALA571  VAL572  SER573  ASN574  PRO588  PHE589  SER590 
 GLY591  TRP592  TYR593  MET594  GLY595  THR596  GLU597  ILE598  ARG601  ASP602 
 ASP605  ARG608  ILE653  VAL654  TRP683  PRO687  SER691  PHE696  HIS697  TYR711 
 HEM750  H4B760 

> <Gold.Protein.RotatedAtoms>
  125.3114  242.9838  360.2004 H   0  0  0  0  0  0  0  0  0  0  0  0  # atno 8396 bound_to 8366
  115.6932  245.8755  367.1774 H   0  0  0  0  0  0  0  0  0  0  0  0  # atno 9046 bound_to 9030
  123.2261  241.7587  358.0925 H   0  0  0  0  0  0  0  0  0  0  0  0  # atno 9150 bound_to 9120
  123.6023  240.7296  359.2954 LP  0  0  0  0  0  0  0  0  0  0  0  0  # atno 13532 bound_to 9120
  122.7426  242.0813  359.6124 LP  0  0  0  0  0  0  0  0  0  0  0  0  # atno 13533 bound_to 9120
  115.8417  244.2852  366.8656 LP  0  0  0  0  0  0  0  0  0  0  0  0  # atno 13546 bound_to 9030
  114.7871  245.1928  366.0108 LP  0  0  0  0  0  0  0  0  0  0  0  0  # atno 13547 bound_to 9030
  126.1948  241.9440  359.3141 LP  0  0  0  0  0  0  0  0  0  0  0  0  # atno 13558 bound_to 8366
  126.9003  242.8106  360.5048 LP  0  0  0  0  0  0  0  0  0  0  0  0  # atno 13559 bound_to 8366

> <Gold.Score>
     Fitness  S(hb_ext) S(vdw_ext)  S(hb_int)    S(int)      intcor
     36.29       2.27      25.01       0.00      -0.36      -0.76

> <Gold.Goldscore.Fitness>
36.2945

> <Gold.Goldscore.Internal.Vdw>
-0.5201

> <Gold.Goldscore.Internal.Torsion>
-0.6024

> <Gold.Goldscore.External.Vdw>
25.0072

> <Gold.Goldscore.Internal.HBond>
0.0000

> <Gold.Goldscore.External.HBond>
2.2671

> <Gold.Goldscore.Internal.Correction>
-0.7650

> <Gold.Goldscore.Hbonds>
donor molecule, donor type, donor heavy atom, donor atom, acceptor molecule, acceptor atom, score
      P1  H  9120  9150       L1     9  1.00
      L1  H     8    22       P1  9230  0.13

> <Gold.Goldscore.Internal.Vdw.Weighted>
-0.5201

> <Gold.Goldscore.Internal.Torsion.Weighted>
-0.6024

> <Gold.Goldscore.External.Vdw.Weighted>
34.3849

> <Gold.Goldscore.Internal.HBond.Weighted>
0.0000

> <Gold.Goldscore.External.HBond.Weighted>
2.2671

> <Gold.Goldscore.Internal.Correction.Weighted>
-0.7650

> <Gold.Rescore>
     Score     S(PLP)   S(hbond)     S(cho)   S(metal)  DE(clash)   DE(tors)     intcor
     35.40     -34.67       0.99       0.00       0.00       0.00       1.13       ----

> <Gold.PLP.Fitness>
35.4038

> <Gold.PLP.PLP>
-34.6732

> <Gold.PLP.part.hbond>
-1.7574

> <Gold.PLP.part.metal>
0.0000

> <Gold.PLP.part.buried>
-7.4011

> <Gold.PLP.part.nonpolar>
-28.1255

> <Gold.PLP.part.repulsive>
1.4252

> <Gold.PLP.ligand.clash>
0.0000

> <Gold.PLP.ligand.torsion>
1.1263

> <Gold.PLP.Chemscore.Hbond>
0.9944

> <Gold.PLP.Chemscore.CHOScore>
0.0000

> <Gold.PLP.Chemscore.Metal>
0.0000

> <Gold.Chemscore.Hbonds>
donor molecule, donor type, donor heavy atom, donor atom, acceptor molecule, acceptor atom, score
      P1  H  9120  9150       L1     9  0.99

> <Gold.PLP.Chemscore.Internal.Correction>
   9.000000E+99

