@<TRIPOS>MOLECULE
example_1
    55    58     1     0     0
SMALL
NO_CHARGES
****
Generated from the CSD

@<TRIPOS>ATOM
     1 O1       3.4201   1.7487   4.0574   O.3       1 RES1   0.0000
     2 C2       2.4260   1.6592   3.1153   C.ar      1 RES1   0.0000
     3 C3       4.1296   2.9799   4.1650   C.3       1 RES1   0.0000
     4 C4       1.7574   0.4283   3.0385   C.ar      1 RES1   0.0000
     5 C5       2.0501   2.6991   2.2583   C.ar      1 RES1   0.0000
     6 C6       5.1717   2.8250   5.2581   C.3       1 RES1   0.0000
     7 O7       2.1701  -0.5421   3.9147   O.3       1 RES1   0.0000
     8 C8       0.7382   0.2681   2.0978   C.ar      1 RES1   0.0000
     9 C9       1.0353   2.5526   1.3215   C.ar      1 RES1   0.0000
    10 C10      1.4830  -1.7848   3.9022   C.3       1 RES1   0.0000
    11 C11      0.3730   1.3245   1.2228   C.ar      1 RES1   0.0000
    12 N12      0.7322   3.6019   0.5540   N.ar      1 RES1   0.0000
    13 C13     -0.6321   1.2536   0.2395   C.ar      1 RES1   0.0000
    14 C14     -0.2569   3.4462  -0.3365   C.ar      1 RES1   0.0000
    15 N15     -0.9593   2.3185  -0.5117   N.ar      1 RES1   0.0000
    16 N16     -1.3474   0.0730   0.0557   N.pl3     1 RES1   0.0000
    17 C17     -0.6353   4.6322  -1.1663   C.3       1 RES1   0.0000
    18 C18     -2.4964   0.0219  -0.8376   C.3       1 RES1   0.0000
    19 C19     -2.0724  -0.6310  -2.1463   C.ar      1 RES1   0.0000
    20 C20     -3.6305  -0.7165  -0.1174   C.3       1 RES1   0.0000
    21 C21     -2.0186  -2.0278  -2.3184   C.ar      1 RES1   0.0000
    22 C22     -1.6673   0.1860  -3.2108   C.ar      1 RES1   0.0000
    23 C23     -1.6005  -2.6112  -3.5278   C.ar      1 RES1   0.0000
    24 C24     -1.2474  -0.3718  -4.4151   C.ar      1 RES1   0.0000
    25 C25     -1.5529  -4.0653  -3.6968   C.2       1 RES1   0.0000
    26 C26     -1.2175  -1.7583  -4.5720   C.ar      1 RES1   0.0000
    27 C27     -1.9308  -5.0457  -2.8732   C.2       1 RES1   0.0000
    28 C28     -1.0475  -4.7756  -4.9033   C.3       1 RES1   0.0000
    29 N29     -1.7289  -6.2961  -3.3904   N.2       1 RES1   0.0000
    30 N30     -1.2260  -6.2072  -4.5442   N.2       1 RES1   0.0000
    31 H1       4.6174   3.2096   3.2188   H         1 RES1   0.0000
    32 H2       3.4403   3.7827   4.4223   H         1 RES1   0.0000
    33 H3       2.5696   3.6536   2.3279   H         1 RES1   0.0000
    34 H4       5.7300   3.7542   5.3617   H         1 RES1   0.0000
    35 H5       5.8549   2.0182   4.9966   H         1 RES1   0.0000
    36 H6       4.6777   2.5914   6.2001   H         1 RES1   0.0000
    37 H7       0.2140  -0.6843   2.0342   H         1 RES1   0.0000
    38 H8       1.9203  -2.4489   4.6463   H         1 RES1   0.0000
    39 H9       1.5699  -2.2377   2.9157   H         1 RES1   0.0000
    40 H10      0.4319  -1.6208   4.1350   H         1 RES1   0.0000
    41 H11     -1.0634  -0.7654   0.5523   H         1 RES1   0.0000
    42 H12     -1.4465   4.3600  -1.8399   H         1 RES1   0.0000
    43 H13      0.2258   4.9578  -1.7480   H         1 RES1   0.0000
    44 H14     -0.9606   5.4420  -0.5150   H         1 RES1   0.0000
    45 H15     -2.8211   1.0403  -1.0458   H         1 RES1   0.0000
    46 H16     -3.8768  -0.1924   0.8049   H         1 RES1   0.0000
    47 H17     -3.3122  -1.7315   0.1158   H         1 RES1   0.0000
    48 H18     -4.5081  -0.7502  -0.7612   H         1 RES1   0.0000
    49 H19     -2.3090  -2.6744  -1.4916   H         1 RES1   0.0000
    50 H20     -1.6812   1.2687  -3.0945   H         1 RES1   0.0000
    51 H21     -0.9417   0.2748  -5.2363   H         1 RES1   0.0000
    52 H22     -0.8917  -2.1839  -5.5200   H         1 RES1   0.0000
    53 H23     -2.3576  -4.8677  -1.8872   H         1 RES1   0.0000
    54 H24      0.0014  -4.5446  -5.0834   H         1 RES1   0.0000
    55 H25     -1.6328  -4.5167  -5.7844   H         1 RES1   0.0000
@<TRIPOS>BOND
     1     1     2    1
     2     1     3    1
     3     2     4   ar
     4     2     5   ar
     5     3     6    1
     6     4     7    1
     7     4     8   ar
     8     5     9   ar
     9     7    10    1
    10     8    11   ar
    11     9    12   ar
    12    11    13   ar
    13    12    14   ar
    14    13    15   ar
    15    13    16    1
    16    14    17    1
    17    16    18    1
    18    18    19    1
    19    18    20    1
    20    19    21   ar
    21    19    22   ar
    22    21    23   ar
    23    22    24   ar
    24    23    25    1
    25    23    26   ar
    26    25    27    2
    27    25    28    1
    28    27    29    1
    29    28    30    1
    30     9    11   ar
    31    14    15   ar
    32    24    26   ar
    33    29    30    2
    34     3    31    1
    35     3    32    1
    36     5    33    1
    37     6    34    1
    38     6    35    1
    39     6    36    1
    40     8    37    1
    41    10    38    1
    42    10    39    1
    43    10    40    1
    44    16    41    1
    45    17    42    1
    46    17    43    1
    47    17    44    1
    48    18    45    1
    49    20    46    1
    50    20    47    1
    51    20    48    1
    52    21    49    1
    53    22    50    1
    54    24    51    1
    55    26    52    1
    56    27    53    1
    57    28    54    1
    58    28    55    1
@<TRIPOS>SUBSTRUCTURE
     1 RES1        1 GROUP             0 ****  ****    0  
