@<TRIPOS>MOLECULE
example_2
    42    44     1     0     0
SMALL
NO_CHARGES
****
Generated from the CSD

@<TRIPOS>ATOM
     1 O1       0.7917  -1.7424   4.7576   O.3       1 RES1   0.0000
     2 C2       0.7390  -1.6455   3.3891   C.ar      1 RES1   0.0000
     3 C3       1.7436  -2.6339   5.3210   C.3       1 RES1   0.0000
     4 C4      -0.2166  -0.7584   2.8690   C.ar      1 RES1   0.0000
     5 C5       1.5563  -2.3687   2.5119   C.ar      1 RES1   0.0000
     6 O6      -0.9948  -0.0956   3.7829   O.3       1 RES1   0.0000
     7 C7      -0.3192  -0.6105   1.4858   C.ar      1 RES1   0.0000
     8 C8       1.4620  -2.2292   1.1329   C.ar      1 RES1   0.0000
     9 C9      -1.9567   0.8248   3.2869   C.3       1 RES1   0.0000
    10 C10      0.5345  -1.3228   0.6094   C.ar      1 RES1   0.0000
    11 N11      2.2556  -2.9757   0.3578   N.ar      1 RES1   0.0000
    12 C12      0.5102  -1.2282  -0.7905   C.ar      1 RES1   0.0000
    13 C13      2.1083  -2.8359  -0.9646   C.ar      1 RES1   0.0000
    14 N14      1.2691  -1.9997  -1.5834   N.ar      1 RES1   0.0000
    15 N15     -0.3097  -0.3224  -1.4696   N.pl3     1 RES1   0.0000
    16 C16      0.3054   0.9765  -1.7908   C.3       1 RES1   0.0000
    17 C17     -0.4679   1.5989  -2.9480   C.ar      1 RES1   0.0000
    18 C18      0.3309   1.9386  -0.6039   C.3       1 RES1   0.0000
    19 C19     -1.8515   1.8294  -2.8610   C.ar      1 RES1   0.0000
    20 C20      0.1985   1.9517  -4.1320   C.ar      1 RES1   0.0000
    21 C21     -2.5472   2.4016  -3.9271   C.ar      1 RES1   0.0000
    22 C22     -0.4996   2.5244  -5.1971   C.ar      1 RES1   0.0000
    23 C23     -1.8708   2.7499  -5.0939   C.ar      1 RES1   0.0000
    24 H1       1.6697  -2.6049   6.4071   H         1 RES1   0.0000
    25 H2       2.7456  -2.3345   5.0172   H         1 RES1   0.0000
    26 H3       1.5452  -3.6457   4.9706   H         1 RES1   0.0000
    27 H4       2.2885  -3.0619   2.9233   H         1 RES1   0.0000
    28 H5      -1.0682   0.0639   1.0733   H         1 RES1   0.0000
    29 H6      -2.4957   1.2714   4.1211   H         1 RES1   0.0000
    30 H7      -2.6589   0.3021   2.6391   H         1 RES1   0.0000
    31 H8      -1.4528   1.6064   2.7203   H         1 RES1   0.0000
    32 H9       2.7326  -3.4642  -1.5981   H         1 RES1   0.0000
    33 H10     -1.2665  -0.5454  -1.7247   H         1 RES1   0.0000
    34 H11      1.3302   0.8019  -2.1152   H         1 RES1   0.0000
    35 H12      0.8847   1.4868   0.2178   H         1 RES1   0.0000
    36 H13     -0.6888   2.1467  -0.2833   H         1 RES1   0.0000
    37 H14      0.8150   2.8680  -0.9003   H         1 RES1   0.0000
    38 H15     -2.3866   1.5586  -1.9520   H         1 RES1   0.0000
    39 H16      1.2698   1.7772  -4.2207   H         1 RES1   0.0000
    40 H17     -3.6192   2.5758  -3.8467   H         1 RES1   0.0000
    41 H18      0.0285   2.7953  -6.1101   H         1 RES1   0.0000
    42 H19     -2.4133   3.1982  -5.9250   H         1 RES1   0.0000
@<TRIPOS>BOND
     1     1     2    1
     2     1     3    1
     3     2     4   ar
     4     2     5   ar
     5     4     6    1
     6     4     7   ar
     7     5     8   ar
     8     6     9    1
     9     7    10   ar
    10     8    11   ar
    11    10    12   ar
    12    11    13   ar
    13    12    14   ar
    14    12    15    1
    15    15    16    1
    16    16    17    1
    17    16    18    1
    18    17    19   ar
    19    17    20   ar
    20    19    21   ar
    21    20    22   ar
    22    21    23   ar
    23     8    10   ar
    24    13    14   ar
    25    22    23   ar
    26     3    24    1
    27     3    25    1
    28     3    26    1
    29     5    27    1
    30     7    28    1
    31     9    29    1
    32     9    30    1
    33     9    31    1
    34    13    32    1
    35    15    33    1
    36    16    34    1
    37    18    35    1
    38    18    36    1
    39    18    37    1
    40    19    38    1
    41    20    39    1
    42    21    40    1
    43    22    41    1
    44    23    42    1
@<TRIPOS>SUBSTRUCTURE
     1 RES1        1 GROUP             0 ****  ****    0  
