#       Name:                CT1002167954
#       Creating user name   hitesit
#       Creation time:       Sun Apr 16 22:50:23 2023


#       File generated by GOLD software.
#

@<TRIPOS>MOLECULE
CT1002167954|ligand_prepared|mol2|1|dock2
    29    30     1
SMALL
NO_CHARGES


@<TRIPOS>ATOM
      1 C1          19.6164  -9.8244  -2.3425 C.3            1 RES1               0.0000
      2 C2          20.6714 -10.9092  -2.0442 C.ar           1 RES1               0.0000
      3 C3          18.8064  -9.6506  -1.0611 C.2            1 RES1               0.0000
      4 C4          20.3910  -8.5801  -2.7624 C.2            1 RES1               0.0000
      5 C5          18.6476 -10.1938  -3.4898 C.3            1 RES1               0.0000
      6 C6          20.3481 -12.2590  -2.1458 C.ar           1 RES1               0.0000
      7 C7          21.9704 -10.5762  -1.6695 C.ar           1 RES1               0.0000
      8 N8          19.0234  -8.5237  -0.3243 N.am           1 RES1               0.0000
      9 O9          18.0179 -10.5081  -0.6824 O.2            1 RES1               0.0000
     10 N10         20.3297  -7.4801  -1.9474 N.am           1 RES1               0.0000
     11 O11         21.0674  -8.5477  -3.7830 O.2            1 RES1               0.0000
     12 C12         17.7964  -9.0298  -3.9723 C.3            1 RES1               0.0000
     13 C13         21.2900 -13.2404  -1.8852 C.ar           1 RES1               0.0000
     14 C14         22.9108 -11.5593  -1.4091 C.ar           1 RES1               0.0000
     15 C15         19.7058  -7.4057  -0.7319 C.2            1 RES1               0.0000
     16 C16         22.5720 -12.8913  -1.5172 C.ar           1 RES1               0.0000
     17 O17         19.7409  -6.3981  -0.0315 O.2            1 RES1               0.0000
     18 H18         19.2316 -10.5784  -4.3351 H              1 RES1               0.0000
     19 H19         17.9845 -10.9977  -3.1470 H              1 RES1               0.0000
     20 H20         19.3437 -12.5528  -2.4317 H              1 RES1               0.0000
     21 H21         22.2591  -9.5348  -1.5771 H              1 RES1               0.0000
     22 H22         18.6432  -8.5111   0.6167 H              1 RES1               0.0000
     23 H23         20.7918  -6.6388  -2.2775 H              1 RES1               0.0000
     24 H24         17.1350  -9.3432  -4.7772 H              1 RES1               0.0000
     25 H25         17.1835  -8.6385  -3.1629 H              1 RES1               0.0000
     26 H26         18.4232  -8.2217  -4.3439 H              1 RES1               0.0000
     27 H27         21.0180 -14.2873  -1.9703 H              1 RES1               0.0000
     28 H28         23.9183 -11.2800  -1.1192 H              1 RES1               0.0000
     29 H29         23.3098 -13.6603  -1.3135 H              1 RES1               0.0000
@<TRIPOS>BOND
    1    1    2 1     
    2    1    3 1     
    3    1    4 1     
    4    1    5 1     
    5    2    6 ar    
    6    2    7 ar    
    7    3    8 1     
    8    3    9 2     
    9    4   10 1     
   10    4   11 2     
   11    5   12 1     
   12    5   18 1     
   13    5   19 1     
   14    6   13 ar    
   15    6   20 1     
   16    7   14 ar    
   17    7   21 1     
   18    8   15 1     
   19    8   22 1     
   20   10   15 1     
   21   10   23 1     
   22   12   24 1     
   23   12   25 1     
   24   12   26 1     
   25   13   16 ar    
   26   13   27 1     
   27   14   16 ar    
   28   14   28 1     
   29   15   17 2     
   30   16   29 1     
@<TRIPOS>SUBSTRUCTURE
      1 RES1           1
@<TRIPOS>SET
DONOR_HYDROGENS      STATIC     ATOMS    <user>   **** ""
2 22 23
ATOM$RED        STATIC     ATOMS    COLORGROUP SYSTEM
2 22 23
@<TRIPOS>COMMENT
> <Gold.Version>
2022.3.0

> <Gold.Id.Protein>
unknown|3owp_clean|pdb

> <Gold.Protein.RotatedTorsions>
[ 3671 3662 3661 3659 ] final  161.29 input   60.00 | X-H torsion
[ 3591 3582 3581 3579 ] final   96.37 input   60.01 | X-H torsion
[ 3859 3850 3849 3847 ] final -125.51 input   60.02 | X-H torsion
[ 3132 3125 3123 3120 ] final  -47.53 input   60.00 | X-H torsion
[ 5167 5158 5157 5155 ] final  -71.03 input   60.02 | X-H torsion
[ 2604 2593 2592 2591 ] final  175.99 input   59.97 | X-H torsion
[  605  600  598  595 ] final   23.42 input   60.04 | X-H torsion
[ 1932 1928 1927 1924 ] final  173.92 input   59.99 | X-H torsion
[ 3182 3173 3172 3170 ] final  144.37 input   60.01 | X-H torsion
[  625  620  619  616 ] final  -62.36 input   60.02 | X-H torsion

> <Gold.Protein.ActiveResidues>
 LEU49   GLY50   THR51   GLY52   SER53   PHE54   GLY55   VAL79   LEU82   LYS83  
 GLN84   HIS87   THR88   GLY126  GLU127  MET128  PHE129  SER130  HIS131  LEU132 
 ARG133  ARG134  ILE135  GLY136  ARG137  ARG165  ASP166  LEU167  LYS168  PRO169 
 GLU170  ASN171  LEU172  LEU173  ASP184  GLY186  PHE187  TPO197  LEU198  CYS199 
 GLY200  THR201  PRO202  GLU203  TYR204  LEU205  ILE209  ILE210  VAL226  LEU227 
 TYR229  GLU230  ALA233  GLY234  TYR235  PRO236  PRO237  PHE238  PHE239  ALA240 
 ASP241  GLN242  PRO243  ILE244  GLN245  ILE246  TYR247  LYS249  ARG256  PHE257 
 PRO258  SER259  ASN326  PHE327  ASP328  ASP329  TYR330 

> <Gold.Protein.RotatedAtoms>
   19.9734  -12.8998    5.7404 H   0  0  0  0  0  0  0  0  0  0  0  0  # atno 605  bound_to 600 
   17.0055  -11.5703   -1.2386 H   0  0  0  0  0  0  0  0  0  0  0  0  # atno 625  bound_to 620 
   26.8971   -5.6642   12.1038 H   0  0  0  0  0  0  0  0  0  0  0  0  # atno 1932 bound_to 1928
   19.5920   -5.0477    0.4886 H   0  0  0  0  0  0  0  0  0  0  0  0  # atno 2604 bound_to 2593
   18.9715   -4.1319    1.7224 H   0  0  0  0  0  0  0  0  0  0  0  0  # atno 2605 bound_to 2593
   18.8967   -3.5798    0.1616 H   0  0  0  0  0  0  0  0  0  0  0  0  # atno 2606 bound_to 2593
   17.3513   -3.0158   -0.7763 H   0  0  0  0  0  0  0  0  0  0  0  0  # atno 3132 bound_to 3125
   22.2705    4.4857    3.4922 H   0  0  0  0  0  0  0  0  0  0  0  0  # atno 3182 bound_to 3173
   16.6750   14.4657    8.3448 H   0  0  0  0  0  0  0  0  0  0  0  0  # atno 3591 bound_to 3582
   16.3321   13.7215   13.0194 H   0  0  0  0  0  0  0  0  0  0  0  0  # atno 3671 bound_to 3662
    9.1966   -0.9698   -3.5727 H   0  0  0  0  0  0  0  0  0  0  0  0  # atno 3859 bound_to 3850
   22.9755  -10.0044   10.2048 H   0  0  0  0  0  0  0  0  0  0  0  0  # atno 5167 bound_to 5158
   15.4534   13.9388   11.6668 LP  0  0  0  0  0  0  0  0  0  0  0  0  # atno 5485 bound_to 3662
   17.0818   14.0486   11.6123 LP  0  0  0  0  0  0  0  0  0  0  0  0  # atno 5486 bound_to 3662
   15.7968   13.1388    8.0041 LP  0  0  0  0  0  0  0  0  0  0  0  0  # atno 5493 bound_to 3582
   15.7187   14.4458    7.0283 LP  0  0  0  0  0  0  0  0  0  0  0  0  # atno 5494 bound_to 3582
    9.0941   -0.9450   -1.9487 LP  0  0  0  0  0  0  0  0  0  0  0  0  # atno 5549 bound_to 3850
   10.4328   -0.3800   -2.6939 LP  0  0  0  0  0  0  0  0  0  0  0  0  # atno 5550 bound_to 3850
   18.5310   -2.4052    0.1634 LP  0  0  0  0  0  0  0  0  0  0  0  0  # atno 5553 bound_to 3125
   18.4893   -2.0544   -1.4309 LP  0  0  0  0  0  0  0  0  0  0  0  0  # atno 5554 bound_to 3125
   22.1488  -10.3668    8.8511 LP  0  0  0  0  0  0  0  0  0  0  0  0  # atno 5563 bound_to 5158
   23.7817  -10.3781    8.8418 LP  0  0  0  0  0  0  0  0  0  0  0  0  # atno 5564 bound_to 5158
   20.3062  -13.6874    7.1249 LP  0  0  0  0  0  0  0  0  0  0  0  0  # atno 5571 bound_to 600 
   18.9807  -14.0815    6.2563 LP  0  0  0  0  0  0  0  0  0  0  0  0  # atno 5572 bound_to 600 
   26.0446   -4.6748   11.1337 LP  0  0  0  0  0  0  0  0  0  0  0  0  # atno 5573 bound_to 1928
   25.4260   -5.1481   12.5690 LP  0  0  0  0  0  0  0  0  0  0  0  0  # atno 5574 bound_to 1928
   21.0647    3.7933    4.3382 LP  0  0  0  0  0  0  0  0  0  0  0  0  # atno 5603 bound_to 3173
   21.0035    5.3848    3.9774 LP  0  0  0  0  0  0  0  0  0  0  0  0  # atno 5604 bound_to 3173
   16.0216  -11.6450   -2.5325 LP  0  0  0  0  0  0  0  0  0  0  0  0  # atno 5611 bound_to 620 
   17.2540  -12.7052   -2.3779 LP  0  0  0  0  0  0  0  0  0  0  0  0  # atno 5612 bound_to 620 

> <Gold.Score>
     Fitness  S(hb_ext) S(vdw_ext)  S(hb_int)    S(int)      intcor
     41.48      11.51      22.38       0.00      -0.80      -0.77

> <Gold.Goldscore.Fitness>
41.4773

> <Gold.Goldscore.Internal.Vdw>
-0.9899

> <Gold.Goldscore.Internal.Torsion>
-0.5747

> <Gold.Goldscore.External.Vdw>
22.3787

> <Gold.Goldscore.Internal.HBond>
0.0000

> <Gold.Goldscore.External.HBond>
11.5059

> <Gold.Goldscore.Internal.Correction>
-0.7653

> <Gold.Goldscore.Hbonds>
donor molecule, donor type, donor heavy atom, donor atom, acceptor molecule, acceptor atom, score
      P1  H  2593  2604       L1    17  1.00
      P1  H   615   624       L1     9  0.83
      P1  H   620   625       L1     9  0.82
      L1  H    10    23       P1  2561  0.37

> <Gold.Goldscore.Internal.Vdw.Weighted>
-0.9899

> <Gold.Goldscore.Internal.Torsion.Weighted>
-0.5747

> <Gold.Goldscore.External.Vdw.Weighted>
30.7707

> <Gold.Goldscore.Internal.HBond.Weighted>
0.0000

> <Gold.Goldscore.External.HBond.Weighted>
11.5059

> <Gold.Goldscore.Internal.Correction.Weighted>
-0.7653

> <Gold.Rescore>
     Score     S(PLP)   S(hbond)     S(cho)   S(metal)  DE(clash)   DE(tors)     intcor
     45.06     -37.94       3.00       0.00       0.00       0.01       0.93       ----

> <Gold.PLP.Fitness>
45.0632

> <Gold.PLP.PLP>
-37.9363

> <Gold.PLP.part.hbond>
-3.9902

> <Gold.PLP.part.metal>
0.0000

> <Gold.PLP.part.buried>
-2.7142

> <Gold.PLP.part.nonpolar>
-33.1347

> <Gold.PLP.part.repulsive>
0.3808

> <Gold.PLP.ligand.clash>
0.0147

> <Gold.PLP.ligand.torsion>
0.9292

> <Gold.PLP.Chemscore.Hbond>
3.0000

> <Gold.PLP.Chemscore.CHOScore>
0.0000

> <Gold.PLP.Chemscore.Metal>
0.0000

> <Gold.Chemscore.Hbonds>
donor molecule, donor type, donor heavy atom, donor atom, acceptor molecule, acceptor atom, score
      L1  H    10    23       P1  2561  0.03
      P1  H  2593  2604       L1    17  0.63
      P1  H   615   624       L1     9  1.00
      P1  H   620   625       L1     9  0.93

> <Gold.PLP.Chemscore.Internal.Correction>
   9.000000E+99

#       Name:                CT1002167954
#       Creating user name   hitesit
#       Creation time:       Sun Apr 16 22:50:25 2023


#       File generated by GOLD software.
#

@<TRIPOS>MOLECULE
CT1002167954|ligand_prepared|mol2|1|dock3
    29    30     1
SMALL
NO_CHARGES


@<TRIPOS>ATOM
      1 C1          20.5870 -10.6850  -1.5281 C.3            1 RES1               0.0000
      2 C2          21.4782 -11.7544  -0.8641 C.ar           1 RES1               0.0000
      3 C3          19.5081 -10.3328  -0.5082 C.2            1 RES1               0.0000
      4 C4          21.5083  -9.5238  -1.8853 C.2            1 RES1               0.0000
      5 C5          19.8975 -11.1647  -2.8266 C.3            1 RES1               0.0000
      6 C6          21.5689 -13.0347  -1.4020 C.ar           1 RES1               0.0000
      7 C7          22.2162 -11.4753   0.2831 C.ar           1 RES1               0.0000
      8 N8          19.6084  -9.1307   0.1281 N.am           1 RES1               0.0000
      9 O9          18.6051 -11.1148  -0.2374 O.2            1 RES1               0.0000
     10 N10         21.3185  -8.3310  -1.2379 N.am           1 RES1               0.0000
     11 O11         22.4075  -9.6358  -2.7094 O.2            1 RES1               0.0000
     12 C12         19.0330 -10.1039  -3.4897 C.3            1 RES1               0.0000
     13 C13         22.3707 -14.0002  -0.8161 C.ar           1 RES1               0.0000
     14 C14         23.0172 -12.4424   0.8676 C.ar           1 RES1               0.0000
     15 C15         20.4302  -8.0908  -0.2253 C.2            1 RES1               0.0000
     16 C16         23.0956 -13.7047   0.3187 C.ar           1 RES1               0.0000
     17 O17         20.3558  -7.0063   0.3453 O.2            1 RES1               0.0000
     18 H18         20.6684 -11.4869  -3.5374 H              1 RES1               0.0000
     19 H19         19.2717 -12.0350  -2.5934 H              1 RES1               0.0000
     20 H20         21.0038 -13.2865  -2.2932 H              1 RES1               0.0000
     21 H21         22.1691 -10.4894   0.7329 H              1 RES1               0.0000
     22 H22         19.0178  -8.9922   0.9419 H              1 RES1               0.0000
     23 H23         21.8925  -7.5499  -1.5388 H              1 RES1               0.0000
     24 H24         18.5729 -10.4924  -4.3958 H              1 RES1               0.0000
     25 H25         18.2399  -9.7785  -2.8196 H              1 RES1               0.0000
     26 H26         19.6284  -9.2337  -3.7581 H              1 RES1               0.0000
     27 H27         22.4279 -14.9925  -1.2511 H              1 RES1               0.0000
     28 H28         23.5855 -12.2055   1.7610 H              1 RES1               0.0000
     29 H29         23.7239 -14.4610   0.7773 H              1 RES1               0.0000
@<TRIPOS>BOND
    1    1    2 1     
    2    1    3 1     
    3    1    4 1     
    4    1    5 1     
    5    2    6 ar    
    6    2    7 ar    
    7    3    8 1     
    8    3    9 2     
    9    4   10 1     
   10    4   11 2     
   11    5   12 1     
   12    5   18 1     
   13    5   19 1     
   14    6   13 ar    
   15    6   20 1     
   16    7   14 ar    
   17    7   21 1     
   18    8   15 1     
   19    8   22 1     
   20   10   15 1     
   21   10   23 1     
   22   12   24 1     
   23   12   25 1     
   24   12   26 1     
   25   13   16 ar    
   26   13   27 1     
   27   14   16 ar    
   28   14   28 1     
   29   15   17 2     
   30   16   29 1     
@<TRIPOS>SUBSTRUCTURE
      1 RES1           1
@<TRIPOS>SET
DONOR_HYDROGENS      STATIC     ATOMS    <user>   **** ""
2 22 23
ATOM$RED        STATIC     ATOMS    COLORGROUP SYSTEM
2 22 23
@<TRIPOS>COMMENT
> <Gold.Version>
2022.3.0

> <Gold.Id.Protein>
unknown|3owp_clean|pdb

> <Gold.Protein.RotatedTorsions>
[ 3671 3662 3661 3659 ] final  147.29 input   60.00 | X-H torsion
[ 3591 3582 3581 3579 ] final  106.47 input   60.01 | X-H torsion
[ 3859 3850 3849 3847 ] final  -99.74 input   60.02 | X-H torsion
[ 3132 3125 3123 3120 ] final  -24.37 input   60.00 | X-H torsion
[ 5167 5158 5157 5155 ] final   82.40 input   60.02 | X-H torsion
[ 2604 2593 2592 2591 ] final   64.82 input   59.97 | X-H torsion
[  605  600  598  595 ] final   13.56 input   60.04 | X-H torsion
[ 1932 1928 1927 1924 ] final   15.45 input   59.99 | X-H torsion
[ 3182 3173 3172 3170 ] final  114.05 input   60.01 | X-H torsion
[  625  620  619  616 ] final  -49.23 input   60.02 | X-H torsion

> <Gold.Protein.ActiveResidues>
 LEU49   GLY50   THR51   GLY52   SER53   PHE54   GLY55   VAL79   LEU82   LYS83  
 GLN84   HIS87   THR88   GLY126  GLU127  MET128  PHE129  SER130  HIS131  LEU132 
 ARG133  ARG134  ILE135  GLY136  ARG137  ARG165  ASP166  LEU167  LYS168  PRO169 
 GLU170  ASN171  LEU172  LEU173  ASP184  GLY186  PHE187  TPO197  LEU198  CYS199 
 GLY200  THR201  PRO202  GLU203  TYR204  LEU205  ILE209  ILE210  VAL226  LEU227 
 TYR229  GLU230  ALA233  GLY234  TYR235  PRO236  PRO237  PHE238  PHE239  ALA240 
 ASP241  GLN242  PRO243  ILE244  GLN245  ILE246  TYR247  LYS249  ARG256  PHE257 
 PRO258  SER259  ASN326  PHE327  ASP328  ASP329  TYR330 

> <Gold.Protein.RotatedAtoms>
   20.1002  -12.8708    5.8350 H   0  0  0  0  0  0  0  0  0  0  0  0  # atno 605  bound_to 600 
   17.1597  -11.7190   -1.2396 H   0  0  0  0  0  0  0  0  0  0  0  0  # atno 625  bound_to 620 
   25.5372   -4.5961   11.4792 H   0  0  0  0  0  0  0  0  0  0  0  0  # atno 1932 bound_to 1928
   18.9546   -3.6688    0.0600 H   0  0  0  0  0  0  0  0  0  0  0  0  # atno 2604 bound_to 2593
   19.5935   -5.0873    0.6307 H   0  0  0  0  0  0  0  0  0  0  0  0  # atno 2605 bound_to 2593
   18.9119   -4.0028    1.6823 H   0  0  0  0  0  0  0  0  0  0  0  0  # atno 2606 bound_to 2593
   17.4039   -2.8945   -1.1280 H   0  0  0  0  0  0  0  0  0  0  0  0  # atno 3132 bound_to 3125
   22.1756    4.0342    3.6571 H   0  0  0  0  0  0  0  0  0  0  0  0  # atno 3182 bound_to 3173
   16.6577   14.5901    8.2382 H   0  0  0  0  0  0  0  0  0  0  0  0  # atno 3591 bound_to 3582
   16.1049   13.7116   12.9997 H   0  0  0  0  0  0  0  0  0  0  0  0  # atno 3671 bound_to 3662
    9.5678   -0.8085   -3.6757 H   0  0  0  0  0  0  0  0  0  0  0  0  # atno 3859 bound_to 3850
   23.3811  -10.4735    8.4920 H   0  0  0  0  0  0  0  0  0  0  0  0  # atno 5167 bound_to 5158
   15.5829   13.9832   11.4822 LP  0  0  0  0  0  0  0  0  0  0  0  0  # atno 5485 bound_to 3662
   17.1810   14.0142   11.8167 LP  0  0  0  0  0  0  0  0  0  0  0  0  # atno 5486 bound_to 3662
   15.8979   13.1548    8.1346 LP  0  0  0  0  0  0  0  0  0  0  0  0  # atno 5493 bound_to 3582
   15.6349   14.3045    7.0051 LP  0  0  0  0  0  0  0  0  0  0  0  0  # atno 5494 bound_to 3582
    8.8310   -1.0761   -2.2495 LP  0  0  0  0  0  0  0  0  0  0  0  0  # atno 5549 bound_to 3850
   10.3221   -0.4114   -2.2894 LP  0  0  0  0  0  0  0  0  0  0  0  0  # atno 5550 bound_to 3850
   18.2389   -2.6319    0.2437 LP  0  0  0  0  0  0  0  0  0  0  0  0  # atno 5553 bound_to 3125
   18.7285   -1.9499   -1.1569 LP  0  0  0  0  0  0  0  0  0  0  0  0  # atno 5554 bound_to 3125
   23.4939  -10.0451   10.0575 LP  0  0  0  0  0  0  0  0  0  0  0  0  # atno 5563 bound_to 5158
   22.0280  -10.2271    9.3612 LP  0  0  0  0  0  0  0  0  0  0  0  0  # atno 5564 bound_to 5158
   20.1999  -13.8029    7.1651 LP  0  0  0  0  0  0  0  0  0  0  0  0  # atno 5571 bound_to 600 
   18.9593  -13.9953    6.1209 LP  0  0  0  0  0  0  0  0  0  0  0  0  # atno 5572 bound_to 600 
   25.8855   -5.5090   12.7800 LP  0  0  0  0  0  0  0  0  0  0  0  0  # atno 5573 bound_to 1928
   26.9553   -5.3901   11.5521 LP  0  0  0  0  0  0  0  0  0  0  0  0  # atno 5574 bound_to 1928
   20.7459    4.1595    4.4247 LP  0  0  0  0  0  0  0  0  0  0  0  0  # atno 5603 bound_to 3173
   21.4178    5.4730    3.7249 LP  0  0  0  0  0  0  0  0  0  0  0  0  # atno 5604 bound_to 3173
   16.0088  -11.5041   -2.3697 LP  0  0  0  0  0  0  0  0  0  0  0  0  # atno 5611 bound_to 620 
   17.1116  -12.6964   -2.5396 LP  0  0  0  0  0  0  0  0  0  0  0  0  # atno 5612 bound_to 620 

> <Gold.Score>
     Fitness  S(hb_ext) S(vdw_ext)  S(hb_int)    S(int)      intcor
     40.89       8.34      24.25       0.00      -0.80      -0.77

> <Gold.Goldscore.Fitness>
40.8858

> <Gold.Goldscore.Internal.Vdw>
-1.1946

> <Gold.Goldscore.Internal.Torsion>
-0.3676

> <Gold.Goldscore.External.Vdw>
24.2504

> <Gold.Goldscore.Internal.HBond>
0.0000

> <Gold.Goldscore.External.HBond>
8.3383

> <Gold.Goldscore.Internal.Correction>
-0.7653

> <Gold.Goldscore.Hbonds>
donor molecule, donor type, donor heavy atom, donor atom, acceptor molecule, acceptor atom, score
      P1  H  2593  2605       L1    17  1.00
      P1  H   615   624       L1     9  0.43
      P1  H   620   625       L1     9  0.53
      L1  H    10    23       P1  2846  0.07

> <Gold.Goldscore.Internal.Vdw.Weighted>
-1.1946

> <Gold.Goldscore.Internal.Torsion.Weighted>
-0.3676

> <Gold.Goldscore.External.Vdw.Weighted>
33.3443

> <Gold.Goldscore.Internal.HBond.Weighted>
0.0000

> <Gold.Goldscore.External.HBond.Weighted>
8.3383

> <Gold.Goldscore.Internal.Correction.Weighted>
-0.7653

> <Gold.Rescore>
     Score     S(PLP)   S(hbond)     S(cho)   S(metal)  DE(clash)   DE(tors)     intcor
     45.02     -36.60       3.19       0.00       0.00       0.00       0.57       ----

> <Gold.PLP.Fitness>
45.0205

> <Gold.PLP.PLP>
-36.5952

> <Gold.PLP.part.hbond>
-4.0000

> <Gold.PLP.part.metal>
0.0000

> <Gold.PLP.part.buried>
-1.6206

> <Gold.PLP.part.nonpolar>
-31.9770

> <Gold.PLP.part.repulsive>
0.3978

> <Gold.PLP.ligand.clash>
0.0000

> <Gold.PLP.ligand.torsion>
0.5681

> <Gold.PLP.Chemscore.Hbond>
3.1872

> <Gold.PLP.Chemscore.CHOScore>
0.0000

> <Gold.PLP.Chemscore.Metal>
0.0000

> <Gold.Chemscore.Hbonds>
donor molecule, donor type, donor heavy atom, donor atom, acceptor molecule, acceptor atom, score
      L1  H    10    23       P1  2846  0.59
      P1  H  2593  2605       L1    17  1.00
      P1  H   615   624       L1     9  0.41
      P1  H   620   625       L1     9  1.00

> <Gold.PLP.Chemscore.Internal.Correction>
   9.000000E+99

#       Name:                CT1002167954
#       Creating user name   hitesit
#       Creation time:       Sun Apr 16 22:50:31 2023


#       File generated by GOLD software.
#

@<TRIPOS>MOLECULE
CT1002167954|ligand_prepared|mol2|1|dock8
    29    30     1
SMALL
NO_CHARGES


@<TRIPOS>ATOM
      1 C1          20.2575  -9.4921  -4.0894 C.3            1 RES1               0.0000
      2 C2          20.6090 -10.8170  -3.3825 C.ar           1 RES1               0.0000
      3 C3          20.2203  -9.8003  -5.5833 C.2            1 RES1               0.0000
      4 C4          18.9191  -9.0432  -3.5133 C.2            1 RES1               0.0000
      5 C5          21.2852  -8.3624  -3.8463 C.3            1 RES1               0.0000
      6 C6          21.9367 -11.1850  -3.1864 C.ar           1 RES1               0.0000
      7 C7          19.6183 -11.6788  -2.9194 C.ar           1 RES1               0.0000
      8 N8          18.9982  -9.8618  -6.1855 N.am           1 RES1               0.0000
      9 O9          21.2452 -10.0250  -6.2151 O.2            1 RES1               0.0000
     10 N10         17.8365  -9.0124  -4.3528 N.am           1 RES1               0.0000
     11 O11         18.7886  -8.7318  -2.3358 O.2            1 RES1               0.0000
     12 C12         20.7986  -6.9877  -4.2771 C.3            1 RES1               0.0000
     13 C13         22.2624 -12.3702  -2.5479 C.ar           1 RES1               0.0000
     14 C14         19.9462 -12.8636  -2.2812 C.ar           1 RES1               0.0000
     15 C15         17.8088  -9.4308  -5.6553 C.2            1 RES1               0.0000
     16 C16         21.2675 -13.2100  -2.0945 C.ar           1 RES1               0.0000
     17 O17         16.7833  -9.4235  -6.3302 O.2            1 RES1               0.0000
     18 H18         21.5298  -8.3315  -2.7774 H              1 RES1               0.0000
     19 H19         22.2058  -8.5987  -4.3942 H              1 RES1               0.0000
     20 H20         22.7332 -10.5380  -3.5386 H              1 RES1               0.0000
     21 H21         18.5720 -11.4273  -3.0562 H              1 RES1               0.0000
     22 H22         18.9656 -10.2658  -7.1162 H              1 RES1               0.0000
     23 H23         16.9712  -8.6433  -3.9716 H              1 RES1               0.0000
     24 H24         21.5575  -6.2322  -4.0847 H              1 RES1               0.0000
     25 H25         20.5701  -6.9752  -5.3407 H              1 RES1               0.0000
     26 H26         19.8980  -6.7096  -3.7336 H              1 RES1               0.0000
     27 H27         23.3038 -12.6388  -2.4046 H              1 RES1               0.0000
     28 H28         19.1599 -13.5218  -1.9266 H              1 RES1               0.0000
     29 H29         21.5229 -14.1381  -1.5940 H              1 RES1               0.0000
@<TRIPOS>BOND
    1    1    2 1     
    2    1    3 1     
    3    1    4 1     
    4    1    5 1     
    5    2    6 ar    
    6    2    7 ar    
    7    3    8 1     
    8    3    9 2     
    9    4   10 1     
   10    4   11 2     
   11    5   12 1     
   12    5   18 1     
   13    5   19 1     
   14    6   13 ar    
   15    6   20 1     
   16    7   14 ar    
   17    7   21 1     
   18    8   15 1     
   19    8   22 1     
   20   10   15 1     
   21   10   23 1     
   22   12   24 1     
   23   12   25 1     
   24   12   26 1     
   25   13   16 ar    
   26   13   27 1     
   27   14   16 ar    
   28   14   28 1     
   29   15   17 2     
   30   16   29 1     
@<TRIPOS>SUBSTRUCTURE
      1 RES1           1
@<TRIPOS>SET
DONOR_HYDROGENS      STATIC     ATOMS    <user>   **** ""
2 22 23
ATOM$RED        STATIC     ATOMS    COLORGROUP SYSTEM
2 22 23
@<TRIPOS>COMMENT
> <Gold.Version>
2022.3.0

> <Gold.Id.Protein>
unknown|3owp_clean|pdb

> <Gold.Protein.RotatedTorsions>
[ 3671 3662 3661 3659 ] final   13.81 input   60.00 | X-H torsion
[ 3591 3582 3581 3579 ] final  172.23 input   60.01 | X-H torsion
[ 3859 3850 3849 3847 ] final -126.48 input   60.02 | X-H torsion
[ 3132 3125 3123 3120 ] final   14.01 input   60.00 | X-H torsion
[ 5167 5158 5157 5155 ] final   92.60 input   60.02 | X-H torsion
[ 2604 2593 2592 2591 ] final  132.12 input   59.97 | X-H torsion
[  605  600  598  595 ] final  -15.24 input   60.04 | X-H torsion
[ 1932 1928 1927 1924 ] final -132.67 input   59.99 | X-H torsion
[ 3182 3173 3172 3170 ] final   20.78 input   60.01 | X-H torsion
[  625  620  619  616 ] final  118.15 input   60.02 | X-H torsion

> <Gold.Protein.ActiveResidues>
 LEU49   GLY50   THR51   GLY52   SER53   PHE54   GLY55   VAL79   LEU82   LYS83  
 GLN84   HIS87   THR88   GLY126  GLU127  MET128  PHE129  SER130  HIS131  LEU132 
 ARG133  ARG134  ILE135  GLY136  ARG137  ARG165  ASP166  LEU167  LYS168  PRO169 
 GLU170  ASN171  LEU172  LEU173  ASP184  GLY186  PHE187  TPO197  LEU198  CYS199 
 GLY200  THR201  PRO202  GLU203  TYR204  LEU205  ILE209  ILE210  VAL226  LEU227 
 TYR229  GLU230  ALA233  GLY234  TYR235  PRO236  PRO237  PHE238  PHE239  ALA240 
 ASP241  GLN242  PRO243  ILE244  GLN245  ILE246  TYR247  LYS249  ARG256  PHE257 
 PRO258  SER259  ASN326  PHE327  ASP328  ASP329  TYR330 

> <Gold.Protein.RotatedAtoms>
   20.4001  -12.9024    6.1898 H   0  0  0  0  0  0  0  0  0  0  0  0  # atno 605  bound_to 600 
   16.5079  -12.3715   -2.8560 H   0  0  0  0  0  0  0  0  0  0  0  0  # atno 625  bound_to 620 
   26.3007   -5.6794   12.6966 H   0  0  0  0  0  0  0  0  0  0  0  0  # atno 1932 bound_to 1928
   19.4395   -4.6049   -0.0514 H   0  0  0  0  0  0  0  0  0  0  0  0  # atno 2604 bound_to 2593
   19.3006   -4.7531    1.5932 H   0  0  0  0  0  0  0  0  0  0  0  0  # atno 2605 bound_to 2593
   18.7200   -3.4011    0.8308 H   0  0  0  0  0  0  0  0  0  0  0  0  # atno 2606 bound_to 2593
   17.7332   -2.5646   -1.5300 H   0  0  0  0  0  0  0  0  0  0  0  0  # atno 3132 bound_to 3125
   21.0209    3.8316    4.3499 H   0  0  0  0  0  0  0  0  0  0  0  0  # atno 3182 bound_to 3173
   16.1716   14.8535    7.3851 H   0  0  0  0  0  0  0  0  0  0  0  0  # atno 3591 bound_to 3582
   15.7511   14.0179   11.3435 H   0  0  0  0  0  0  0  0  0  0  0  0  # atno 3671 bound_to 3662
    9.1837   -0.9752   -3.5654 H   0  0  0  0  0  0  0  0  0  0  0  0  # atno 3859 bound_to 3850
   23.2259  -10.4885    8.4341 H   0  0  0  0  0  0  0  0  0  0  0  0  # atno 5167 bound_to 5158
   17.2264   13.9748   12.0295 LP  0  0  0  0  0  0  0  0  0  0  0  0  # atno 5485 bound_to 3662
   15.8935   13.7143   12.9362 LP  0  0  0  0  0  0  0  0  0  0  0  0  # atno 5486 bound_to 3662
   16.5354   13.8167    8.5855 LP  0  0  0  0  0  0  0  0  0  0  0  0  # atno 5493 bound_to 3582
   15.4869   13.3775    7.4132 LP  0  0  0  0  0  0  0  0  0  0  0  0  # atno 5494 bound_to 3582
    9.1062   -0.9392   -1.9402 LP  0  0  0  0  0  0  0  0  0  0  0  0  # atno 5549 bound_to 3850
   10.4337   -0.3803   -2.7098 LP  0  0  0  0  0  0  0  0  0  0  0  0  # atno 5550 bound_to 3850
   17.7376   -2.9425    0.0527 LP  0  0  0  0  0  0  0  0  0  0  0  0  # atno 5553 bound_to 3125
   18.8981   -1.9715   -0.5611 LP  0  0  0  0  0  0  0  0  0  0  0  0  # atno 5554 bound_to 3125
   23.6241  -10.0734    9.9561 LP  0  0  0  0  0  0  0  0  0  0  0  0  # atno 5563 bound_to 5158
   22.0541  -10.1837    9.5209 LP  0  0  0  0  0  0  0  0  0  0  0  0  # atno 5564 bound_to 5158
   19.8270  -14.0866    7.1474 LP  0  0  0  0  0  0  0  0  0  0  0  0  # atno 5571 bound_to 600 
   19.0301  -13.6797    5.7813 LP  0  0  0  0  0  0  0  0  0  0  0  0  # atno 5572 bound_to 600 
   26.7609   -5.1142   11.2420 LP  0  0  0  0  0  0  0  0  0  0  0  0  # atno 5573 bound_to 1928
   25.3105   -4.6934   11.8634 LP  0  0  0  0  0  0  0  0  0  0  0  0  # atno 5574 bound_to 1928
   21.0482    5.4082    3.9467 LP  0  0  0  0  0  0  0  0  0  0  0  0  # atno 5603 bound_to 3173
   22.2778    4.4283    3.5055 LP  0  0  0  0  0  0  0  0  0  0  0  0  # atno 5604 bound_to 3173
   17.5026  -12.3050   -1.5699 LP  0  0  0  0  0  0  0  0  0  0  0  0  # atno 5611 bound_to 620 
   16.2741  -11.2385   -1.7117 LP  0  0  0  0  0  0  0  0  0  0  0  0  # atno 5612 bound_to 620 

> <Gold.Score>
     Fitness  S(hb_ext) S(vdw_ext)  S(hb_int)    S(int)      intcor
     35.91       0.00      26.61       0.00      -0.67      -0.76

> <Gold.Goldscore.Fitness>
35.9129

> <Gold.Goldscore.Internal.Vdw>
-0.8172

> <Gold.Goldscore.Internal.Torsion>
-0.6131

> <Gold.Goldscore.External.Vdw>
26.6070

> <Gold.Goldscore.Internal.HBond>
0.0000

> <Gold.Goldscore.External.HBond>
0.0000

> <Gold.Goldscore.Internal.Correction>
-0.7585

> <Gold.Goldscore.Internal.Vdw.Weighted>
-0.8172

> <Gold.Goldscore.Internal.Torsion.Weighted>
-0.6131

> <Gold.Goldscore.External.Vdw.Weighted>
36.5847

> <Gold.Goldscore.Internal.HBond.Weighted>
0.0000

> <Gold.Goldscore.External.HBond.Weighted>
0.0000

> <Gold.Goldscore.Internal.Correction.Weighted>
-0.7585

> <Gold.Rescore>
     Score     S(PLP)   S(hbond)     S(cho)   S(metal)  DE(clash)   DE(tors)     intcor
     29.40     -31.34       0.00       0.00       0.00       0.00       0.97       ----

> <Gold.PLP.Fitness>
29.4008

> <Gold.PLP.PLP>
-31.3382

> <Gold.PLP.part.hbond>
0.0000

> <Gold.PLP.part.metal>
0.0000

> <Gold.PLP.part.buried>
-0.2637

> <Gold.PLP.part.nonpolar>
-30.3961

> <Gold.PLP.part.repulsive>
0.1474

> <Gold.PLP.ligand.clash>
0.0000

> <Gold.PLP.ligand.torsion>
0.9687

> <Gold.PLP.Chemscore.Hbond>
0.0000

> <Gold.PLP.Chemscore.CHOScore>
0.0000

> <Gold.PLP.Chemscore.Metal>
0.0000

> <Gold.PLP.Chemscore.Internal.Correction>
   9.000000E+99

#       Name:                CT1002167954
#       Creating user name   hitesit
#       Creation time:       Sun Apr 16 22:50:34 2023


#       File generated by GOLD software.
#

@<TRIPOS>MOLECULE
CT1002167954|ligand_prepared|mol2|1|dock10
    29    30     1
SMALL
NO_CHARGES


@<TRIPOS>ATOM
      1 C1          24.5823  -9.7486   2.0737 C.3            1 RES1               0.0000
      2 C2          24.1285 -10.9863   1.2731 C.ar           1 RES1               0.0000
      3 C3          23.3626  -9.2753   2.8588 C.2            1 RES1               0.0000
      4 C4          25.7445 -10.2081   2.9471 C.2            1 RES1               0.0000
      5 C5          25.0810  -8.5814   1.1903 C.3            1 RES1               0.0000
      6 C6          23.9872 -12.2217   1.8980 C.ar           1 RES1               0.0000
      7 C7          23.8454 -10.9078  -0.0879 C.ar           1 RES1               0.0000
      8 N8          23.3447  -9.5122   4.2018 N.am           1 RES1               0.0000
      9 O9          22.4133  -8.7377   2.3019 O.2            1 RES1               0.0000
     10 N10         25.5678 -10.2024   4.3060 N.am           1 RES1               0.0000
     11 O11         26.8058 -10.5909   2.4702 O.2            1 RES1               0.0000
     12 C12         25.8208  -7.5005   1.9626 C.3            1 RES1               0.0000
     13 C13         23.5749 -13.3376   1.1887 C.ar           1 RES1               0.0000
     14 C14         23.4335 -12.0251  -0.7954 C.ar           1 RES1               0.0000
     15 C15         24.4101  -9.9044   4.9716 C.2            1 RES1               0.0000
     16 C16         23.2974 -13.2400  -0.1581 C.ar           1 RES1               0.0000
     17 O17         24.3133  -9.9748   6.1934 O.2            1 RES1               0.0000
     18 H18         25.7486  -8.9833   0.4181 H              1 RES1               0.0000
     19 H19         24.2194  -8.1275   0.6854 H              1 RES1               0.0000
     20 H20         24.2034 -12.3183   2.9567 H              1 RES1               0.0000
     21 H21         23.9465  -9.9625  -0.6102 H              1 RES1               0.0000
     22 H22         22.4570  -9.3862   4.6776 H              1 RES1               0.0000
     23 H23         26.3742 -10.4424   4.8740 H              1 RES1               0.0000
     24 H24         26.1489  -6.7059   1.2958 H              1 RES1               0.0000
     25 H25         25.1782  -7.0612   2.7228 H              1 RES1               0.0000
     26 H26         26.6984  -7.9119   2.4571 H              1 RES1               0.0000
     27 H27         23.4707 -14.2918   1.6946 H              1 RES1               0.0000
     28 H28         23.2168 -11.9438  -1.8554 H              1 RES1               0.0000
     29 H29         22.9741 -14.1143  -0.7134 H              1 RES1               0.0000
@<TRIPOS>BOND
    1    1    2 1     
    2    1    3 1     
    3    1    4 1     
    4    1    5 1     
    5    2    6 ar    
    6    2    7 ar    
    7    3    8 1     
    8    3    9 2     
    9    4   10 1     
   10    4   11 2     
   11    5   12 1     
   12    5   18 1     
   13    5   19 1     
   14    6   13 ar    
   15    6   20 1     
   16    7   14 ar    
   17    7   21 1     
   18    8   15 1     
   19    8   22 1     
   20   10   15 1     
   21   10   23 1     
   22   12   24 1     
   23   12   25 1     
   24   12   26 1     
   25   13   16 ar    
   26   13   27 1     
   27   14   16 ar    
   28   14   28 1     
   29   15   17 2     
   30   16   29 1     
@<TRIPOS>SUBSTRUCTURE
      1 RES1           1
@<TRIPOS>SET
DONOR_HYDROGENS      STATIC     ATOMS    <user>   **** ""
2 22 23
ATOM$RED        STATIC     ATOMS    COLORGROUP SYSTEM
2 22 23
@<TRIPOS>COMMENT
> <Gold.Version>
2022.3.0

> <Gold.Id.Protein>
unknown|3owp_clean|pdb

> <Gold.Protein.RotatedTorsions>
[ 3671 3662 3661 3659 ] final -177.64 input   60.00 | X-H torsion
[ 3591 3582 3581 3579 ] final  162.73 input   60.01 | X-H torsion
[ 3859 3850 3849 3847 ] final   15.45 input   60.02 | X-H torsion
[ 3132 3125 3123 3120 ] final  140.35 input   60.00 | X-H torsion
[ 5167 5158 5157 5155 ] final   68.55 input   60.02 | X-H torsion
[ 2604 2593 2592 2591 ] final  -76.60 input   59.97 | X-H torsion
[  605  600  598  595 ] final   65.95 input   60.04 | X-H torsion
[ 1932 1928 1927 1924 ] final  101.72 input   59.99 | X-H torsion
[ 3182 3173 3172 3170 ] final   87.46 input   60.01 | X-H torsion
[  625  620  619  616 ] final  -78.34 input   60.02 | X-H torsion

> <Gold.Protein.ActiveResidues>
 LEU49   GLY50   THR51   GLY52   SER53   PHE54   GLY55   VAL79   LEU82   LYS83  
 GLN84   HIS87   THR88   GLY126  GLU127  MET128  PHE129  SER130  HIS131  LEU132 
 ARG133  ARG134  ILE135  GLY136  ARG137  ARG165  ASP166  LEU167  LYS168  PRO169 
 GLU170  ASN171  LEU172  LEU173  ASP184  GLY186  PHE187  TPO197  LEU198  CYS199 
 GLY200  THR201  PRO202  GLU203  TYR204  LEU205  ILE209  ILE210  VAL226  LEU227 
 TYR229  GLU230  ALA233  GLY234  TYR235  PRO236  PRO237  PHE238  PHE239  ALA240 
 ASP241  GLN242  PRO243  ILE244  GLN245  ILE246  TYR247  LYS249  ARG256  PHE257 
 PRO258  SER259  ASN326  PHE327  ASP328  ASP329  TYR330 

> <Gold.Protein.RotatedAtoms>
   19.4022  -13.2251    5.5699 H   0  0  0  0  0  0  0  0  0  0  0  0  # atno 605  bound_to 600 
   16.8016  -11.4186   -1.2942 H   0  0  0  0  0  0  0  0  0  0  0  0  # atno 625  bound_to 620 
   26.6987   -5.0576   11.2047 H   0  0  0  0  0  0  0  0  0  0  0  0  # atno 1932 bound_to 1928
   19.0635   -4.3197    1.7411 H   0  0  0  0  0  0  0  0  0  0  0  0  # atno 2604 bound_to 2593
   18.8246   -3.4806    0.3323 H   0  0  0  0  0  0  0  0  0  0  0  0  # atno 2605 bound_to 2593
   19.5722   -4.9593    0.2998 H   0  0  0  0  0  0  0  0  0  0  0  0  # atno 2606 bound_to 2593
   18.8867   -1.9999   -0.4616 H   0  0  0  0  0  0  0  0  0  0  0  0  # atno 3132 bound_to 3125
   21.9261    3.7520    3.8659 H   0  0  0  0  0  0  0  0  0  0  0  0  # atno 3182 bound_to 3173
   16.2693   14.8835    7.5015 H   0  0  0  0  0  0  0  0  0  0  0  0  # atno 3591 bound_to 3582
   16.6651   13.7561   12.9468 H   0  0  0  0  0  0  0  0  0  0  0  0  # atno 3671 bound_to 3662
   10.3490   -0.4007   -2.3631 H   0  0  0  0  0  0  0  0  0  0  0  0  # atno 3859 bound_to 3850
   23.5703  -10.4421    8.6111 H   0  0  0  0  0  0  0  0  0  0  0  0  # atno 5167 bound_to 5158
   15.3537   13.8689   11.9894 LP  0  0  0  0  0  0  0  0  0  0  0  0  # atno 5485 bound_to 3662
   16.8464   14.0837   11.3628 LP  0  0  0  0  0  0  0  0  0  0  0  0  # atno 5486 bound_to 3662
   16.4639   13.6782    8.5774 LP  0  0  0  0  0  0  0  0  0  0  0  0  # atno 5493 bound_to 3582
   15.4600   13.4857    7.3040 LP  0  0  0  0  0  0  0  0  0  0  0  0  # atno 5494 bound_to 3582
    9.4963   -0.8425   -3.6769 LP  0  0  0  0  0  0  0  0  0  0  0  0  # atno 5549 bound_to 3850
    8.8700   -1.0557   -2.1839 LP  0  0  0  0  0  0  0  0  0  0  0  0  # atno 5550 bound_to 3850
   17.8083   -2.5050   -1.5705 LP  0  0  0  0  0  0  0  0  0  0  0  0  # atno 5553 bound_to 3125
   17.6656   -2.9777   -0.0139 LP  0  0  0  0  0  0  0  0  0  0  0  0  # atno 5554 bound_to 3125
   23.2911  -10.0170   10.1566 LP  0  0  0  0  0  0  0  0  0  0  0  0  # atno 5563 bound_to 5158
   22.0402  -10.2869    9.1421 LP  0  0  0  0  0  0  0  0  0  0  0  0  # atno 5564 bound_to 5158
   20.5484  -13.1887    6.7244 LP  0  0  0  0  0  0  0  0  0  0  0  0  # atno 5571 bound_to 600 
   19.3139  -14.2526    6.8286 LP  0  0  0  0  0  0  0  0  0  0  0  0  # atno 5572 bound_to 600 
   25.2885   -4.7278   11.9460 LP  0  0  0  0  0  0  0  0  0  0  0  0  # atno 5573 bound_to 1928
   26.3820   -5.7062   12.6627 LP  0  0  0  0  0  0  0  0  0  0  0  0  # atno 5574 bound_to 1928
   20.6228    4.5738    4.3905 LP  0  0  0  0  0  0  0  0  0  0  0  0  # atno 5603 bound_to 3173
   21.7921    5.3428    3.5490 LP  0  0  0  0  0  0  0  0  0  0  0  0  # atno 5604 bound_to 3173
   16.0892  -11.8388   -2.6956 LP  0  0  0  0  0  0  0  0  0  0  0  0  # atno 5611 bound_to 620 
   17.3919  -12.6643   -2.1588 LP  0  0  0  0  0  0  0  0  0  0  0  0  # atno 5612 bound_to 620 

> <Gold.Score>
     Fitness  S(hb_ext) S(vdw_ext)  S(hb_int)    S(int)      intcor
     33.85       0.77      24.29       0.00      -0.32      -0.76

> <Gold.Goldscore.Fitness>
33.8506

> <Gold.Goldscore.Internal.Vdw>
-0.4378

> <Gold.Goldscore.Internal.Torsion>
-0.6406

> <Gold.Goldscore.External.Vdw>
24.2889

> <Gold.Goldscore.Internal.HBond>
0.0000

> <Gold.Goldscore.External.HBond>
0.7732

> <Gold.Goldscore.Internal.Correction>
-0.7585

> <Gold.Goldscore.Hbonds>
donor molecule, donor type, donor heavy atom, donor atom, acceptor molecule, acceptor atom, score
      P1  H  5158  5167       L1    17  0.39

> <Gold.Goldscore.Internal.Vdw.Weighted>
-0.4378

> <Gold.Goldscore.Internal.Torsion.Weighted>
-0.6406

> <Gold.Goldscore.External.Vdw.Weighted>
33.3972

> <Gold.Goldscore.Internal.HBond.Weighted>
0.0000

> <Gold.Goldscore.External.HBond.Weighted>
0.7732

> <Gold.Goldscore.Internal.Correction.Weighted>
-0.7585

> <Gold.Rescore>
     Score     S(PLP)   S(hbond)     S(cho)   S(metal)  DE(clash)   DE(tors)     intcor
     31.79     -34.06       0.17       0.00       0.00       0.00       1.39       ----

> <Gold.PLP.Fitness>
31.7854

> <Gold.PLP.PLP>
-34.0647

> <Gold.PLP.part.hbond>
-1.5472

> <Gold.PLP.part.metal>
0.0000

> <Gold.PLP.part.buried>
-2.7364

> <Gold.PLP.part.nonpolar>
-29.7144

> <Gold.PLP.part.repulsive>
0.5077

> <Gold.PLP.ligand.clash>
0.0000

> <Gold.PLP.ligand.torsion>
1.3881

> <Gold.PLP.Chemscore.Hbond>
0.1656

> <Gold.PLP.Chemscore.CHOScore>
0.0000

> <Gold.PLP.Chemscore.Metal>
0.0000

> <Gold.PLP.Chemscore.Internal.Correction>
   9.000000E+99

#       Name:                CT1002167954
#       Creating user name   hitesit
#       Creation time:       Sun Apr 16 22:50:26 2023


#       File generated by GOLD software.
#

@<TRIPOS>MOLECULE
CT1002167954|ligand_prepared|mol2|1|dock4
    29    30     1
SMALL
NO_CHARGES


@<TRIPOS>ATOM
      1 C1          23.7010  -9.2521   2.1905 C.3            1 RES1               0.0000
      2 C2          23.6481 -10.7380   1.7806 C.ar           1 RES1               0.0000
      3 C3          23.9771  -8.4648   0.9130 C.2            1 RES1               0.0000
      4 C4          22.3553  -8.9394   2.8355 C.2            1 RES1               0.0000
      5 C5          24.8103  -8.9264   3.2176 C.3            1 RES1               0.0000
      6 C6          23.7804 -11.7417   2.7355 C.ar           1 RES1               0.0000
      7 C7          23.4652 -11.1200   0.4542 C.ar           1 RES1               0.0000
      8 N8          22.9445  -7.7578   0.3709 N.am           1 RES1               0.0000
      9 O9          25.0735  -8.4956   0.3677 O.2            1 RES1               0.0000
     10 N10         21.5289  -8.0512   2.1983 N.am           1 RES1               0.0000
     11 O11         21.9962  -9.4666   3.8811 O.2            1 RES1               0.0000
     12 C12         24.9977  -7.4381   3.4664 C.3            1 RES1               0.0000
     13 C13         23.7288 -13.0788   2.3779 C.ar           1 RES1               0.0000
     14 C14         23.4142 -12.4577   0.0987 C.ar           1 RES1               0.0000
     15 C15         21.7495  -7.4697   0.9796 C.2            1 RES1               0.0000
     16 C16         23.5453 -13.4377   1.0596 C.ar           1 RES1               0.0000
     17 O17         20.9338  -6.7233   0.4460 O.2            1 RES1               0.0000
     18 H18         24.5655  -9.4153   4.1687 H              1 RES1               0.0000
     19 H19         25.7580  -9.3465   2.8589 H              1 RES1               0.0000
     20 H20         23.9280 -11.4784   3.7776 H              1 RES1               0.0000
     21 H21         23.3608 -10.3662  -0.3188 H              1 RES1               0.0000
     22 H22         23.0728  -7.4113  -0.5745 H              1 RES1               0.0000
     23 H23         20.6696  -7.8003   2.6770 H              1 RES1               0.0000
     24 H24         25.7874  -7.2652   4.1945 H              1 RES1               0.0000
     25 H25         25.2669  -6.9240   2.5460 H              1 RES1               0.0000
     26 H26         24.0814  -6.9924   3.8480 H              1 RES1               0.0000
     27 H27         23.8339 -13.8462   3.1377 H              1 RES1               0.0000
     28 H28         23.2702 -12.7356  -0.9401 H              1 RES1               0.0000
     29 H29         23.5045 -14.4852   0.7798 H              1 RES1               0.0000
@<TRIPOS>BOND
    1    1    2 1     
    2    1    3 1     
    3    1    4 1     
    4    1    5 1     
    5    2    6 ar    
    6    2    7 ar    
    7    3    8 1     
    8    3    9 2     
    9    4   10 1     
   10    4   11 2     
   11    5   12 1     
   12    5   18 1     
   13    5   19 1     
   14    6   13 ar    
   15    6   20 1     
   16    7   14 ar    
   17    7   21 1     
   18    8   15 1     
   19    8   22 1     
   20   10   15 1     
   21   10   23 1     
   22   12   24 1     
   23   12   25 1     
   24   12   26 1     
   25   13   16 ar    
   26   13   27 1     
   27   14   16 ar    
   28   14   28 1     
   29   15   17 2     
   30   16   29 1     
@<TRIPOS>SUBSTRUCTURE
      1 RES1           1
@<TRIPOS>SET
DONOR_HYDROGENS      STATIC     ATOMS    <user>   **** ""
2 22 23
ATOM$RED        STATIC     ATOMS    COLORGROUP SYSTEM
2 22 23
@<TRIPOS>COMMENT
> <Gold.Version>
2022.3.0

> <Gold.Id.Protein>
unknown|3owp_clean|pdb

> <Gold.Protein.RotatedTorsions>
[ 3671 3662 3661 3659 ] final  -21.62 input   60.00 | X-H torsion
[ 3591 3582 3581 3579 ] final   27.96 input   60.01 | X-H torsion
[ 3859 3850 3849 3847 ] final  -60.08 input   60.02 | X-H torsion
[ 3132 3125 3123 3120 ] final  -66.90 input   60.00 | X-H torsion
[ 5167 5158 5157 5155 ] final -133.29 input   60.02 | X-H torsion
[ 2604 2593 2592 2591 ] final -164.77 input   59.97 | X-H torsion
[  605  600  598  595 ] final  122.38 input   60.04 | X-H torsion
[ 1932 1928 1927 1924 ] final  171.80 input   59.99 | X-H torsion
[ 3182 3173 3172 3170 ] final  -61.38 input   60.01 | X-H torsion
[  625  620  619  616 ] final   17.64 input   60.02 | X-H torsion

> <Gold.Protein.ActiveResidues>
 LEU49   GLY50   THR51   GLY52   SER53   PHE54   GLY55   VAL79   LEU82   LYS83  
 GLN84   HIS87   THR88   GLY126  GLU127  MET128  PHE129  SER130  HIS131  LEU132 
 ARG133  ARG134  ILE135  GLY136  ARG137  ARG165  ASP166  LEU167  LYS168  PRO169 
 GLU170  ASN171  LEU172  LEU173  ASP184  GLY186  PHE187  TPO197  LEU198  CYS199 
 GLY200  THR201  PRO202  GLU203  TYR204  LEU205  ILE209  ILE210  VAL226  LEU227 
 TYR229  GLU230  ALA233  GLY234  TYR235  PRO236  PRO237  PHE238  PHE239  ALA240 
 ASP241  GLN242  PRO243  ILE244  GLN245  ILE246  TYR247  LYS249  ARG256  PHE257 
 PRO258  SER259  ASN326  PHE327  ASP328  ASP329  TYR330 

> <Gold.Protein.RotatedAtoms>
   18.9701  -13.8810    5.9781 H   0  0  0  0  0  0  0  0  0  0  0  0  # atno 605  bound_to 600 
   17.4983  -12.5022   -1.8193 H   0  0  0  0  0  0  0  0  0  0  0  0  # atno 625  bound_to 620 
   26.9097   -5.6538   12.0732 H   0  0  0  0  0  0  0  0  0  0  0  0  # atno 1932 bound_to 1928
   19.5818   -5.1084    0.8023 H   0  0  0  0  0  0  0  0  0  0  0  0  # atno 2604 bound_to 2593
   18.8494   -3.8594    1.6082 H   0  0  0  0  0  0  0  0  0  0  0  0  # atno 2605 bound_to 2593
   19.0291   -3.7917   -0.0379 H   0  0  0  0  0  0  0  0  0  0  0  0  # atno 2606 bound_to 2593
   17.4028   -3.0528   -0.4678 H   0  0  0  0  0  0  0  0  0  0  0  0  # atno 3132 bound_to 3125
   20.6904    5.0122    4.2410 H   0  0  0  0  0  0  0  0  0  0  0  0  # atno 3182 bound_to 3173
   16.3319   13.4853    8.5160 H   0  0  0  0  0  0  0  0  0  0  0  0  # atno 3591 bound_to 3582
   16.2939   14.0828   11.1823 H   0  0  0  0  0  0  0  0  0  0  0  0  # atno 3671 bound_to 3662
   10.1146   -0.5551   -3.4751 H   0  0  0  0  0  0  0  0  0  0  0  0  # atno 3859 bound_to 3850
   22.1436  -10.1303    9.7268 H   0  0  0  0  0  0  0  0  0  0  0  0  # atno 5167 bound_to 5158
   17.1019   13.8588   12.5773 LP  0  0  0  0  0  0  0  0  0  0  0  0  # atno 5485 bound_to 3662
   15.4718   13.7650   12.5506 LP  0  0  0  0  0  0  0  0  0  0  0  0  # atno 5486 bound_to 3662
   15.4512   13.6817    7.1618 LP  0  0  0  0  0  0  0  0  0  0  0  0  # atno 5493 bound_to 3582
   16.4097   14.8900    7.6982 LP  0  0  0  0  0  0  0  0  0  0  0  0  # atno 5494 bound_to 3582
    8.7242   -1.1518   -2.8757 LP  0  0  0  0  0  0  0  0  0  0  0  0  # atno 5549 bound_to 3850
    9.8781   -0.5909   -1.8653 LP  0  0  0  0  0  0  0  0  0  0  0  0  # atno 5550 bound_to 3850
   18.7265   -2.2250   -0.0095 LP  0  0  0  0  0  0  0  0  0  0  0  0  # atno 5553 bound_to 3125
   18.2419   -2.1974   -1.5686 LP  0  0  0  0  0  0  0  0  0  0  0  0  # atno 5554 bound_to 3125
   22.9991  -10.4965    8.3922 LP  0  0  0  0  0  0  0  0  0  0  0  0  # atno 5563 bound_to 5158
   23.7696  -10.1216    9.7823 LP  0  0  0  0  0  0  0  0  0  0  0  0  # atno 5564 bound_to 5158
   20.2338  -12.8560    5.9595 LP  0  0  0  0  0  0  0  0  0  0  0  0  # atno 5571 bound_to 600 
   20.0636  -13.9247    7.1824 LP  0  0  0  0  0  0  0  0  0  0  0  0  # atno 5572 bound_to 600 
   26.0130   -4.6639   11.1442 LP  0  0  0  0  0  0  0  0  0  0  0  0  # atno 5573 bound_to 1928
   25.4448   -5.1694   12.5893 LP  0  0  0  0  0  0  0  0  0  0  0  0  # atno 5574 bound_to 1928
   22.1136    5.0149    3.4514 LP  0  0  0  0  0  0  0  0  0  0  0  0  # atno 5603 bound_to 3173
   21.5451    3.6333    4.1105 LP  0  0  0  0  0  0  0  0  0  0  0  0  # atno 5604 bound_to 3173
   16.4937  -11.2674   -1.4819 LP  0  0  0  0  0  0  0  0  0  0  0  0  # atno 5611 bound_to 620 
   16.2857  -12.1444   -2.8437 LP  0  0  0  0  0  0  0  0  0  0  0  0  # atno 5612 bound_to 620 

> <Gold.Score>
     Fitness  S(hb_ext) S(vdw_ext)  S(hb_int)    S(int)      intcor
     33.78       2.61      23.48       0.00      -1.12      -0.77

> <Gold.Goldscore.Fitness>
33.7772

> <Gold.Goldscore.Internal.Vdw>
-1.3975

> <Gold.Goldscore.Internal.Torsion>
-0.4878

> <Gold.Goldscore.External.Vdw>
23.4831

> <Gold.Goldscore.Internal.HBond>
0.0000

> <Gold.Goldscore.External.HBond>
2.6080

> <Gold.Goldscore.Internal.Correction>
-0.7653

> <Gold.Goldscore.Hbonds>
donor molecule, donor type, donor heavy atom, donor atom, acceptor molecule, acceptor atom, score
      P1  H  2593  2604       L1    17  0.14
      L1  H     8    22       P1  2846  0.29

> <Gold.Goldscore.Internal.Vdw.Weighted>
-1.3975

> <Gold.Goldscore.Internal.Torsion.Weighted>
-0.4878

> <Gold.Goldscore.External.Vdw.Weighted>
32.2893

> <Gold.Goldscore.Internal.HBond.Weighted>
0.0000

> <Gold.Goldscore.External.HBond.Weighted>
2.6080

> <Gold.Goldscore.Internal.Correction.Weighted>
-0.7653

> <Gold.Rescore>
     Score     S(PLP)   S(hbond)     S(cho)   S(metal)  DE(clash)   DE(tors)     intcor
     31.63     -31.94       0.44       0.00       0.00       0.76       0.43       ----

> <Gold.PLP.Fitness>
31.6305

> <Gold.PLP.PLP>
-31.9383

> <Gold.PLP.part.hbond>
-2.0000

> <Gold.PLP.part.metal>
0.0000

> <Gold.PLP.part.buried>
-5.3046

> <Gold.PLP.part.nonpolar>
-27.8490

> <Gold.PLP.part.repulsive>
2.8366

> <Gold.PLP.ligand.clash>
0.7648

> <Gold.PLP.ligand.torsion>
0.4265

> <Gold.PLP.Chemscore.Hbond>
0.4367

> <Gold.PLP.Chemscore.CHOScore>
0.0000

> <Gold.PLP.Chemscore.Metal>
0.0000

> <Gold.Chemscore.Hbonds>
donor molecule, donor type, donor heavy atom, donor atom, acceptor molecule, acceptor atom, score
      L1  H     8    22       P1  2846  0.67
      P1  H  2593  2604       L1    17  0.84

> <Gold.PLP.Chemscore.Internal.Correction>
   9.000000E+99

#       Name:                CT1002167954
#       Creating user name   hitesit
#       Creation time:       Sun Apr 16 22:50:22 2023


#       File generated by GOLD software.
#

@<TRIPOS>MOLECULE
CT1002167954|ligand_prepared|mol2|1|dock1
    29    30     1
SMALL
NO_CHARGES


@<TRIPOS>ATOM
      1 C1          20.3439  -9.3409  -3.5231 C.3            1 RES1               0.0000
      2 C2          20.9434 -10.6002  -2.8647 C.ar           1 RES1               0.0000
      3 C3          20.0972  -9.6984  -4.9859 C.2            1 RES1               0.0000
      4 C4          19.0771  -9.0124  -2.7408 C.2            1 RES1               0.0000
      5 C5          21.2725  -8.1054  -3.4694 C.3            1 RES1               0.0000
      6 C6          22.2041 -10.5603  -2.2765 C.ar           1 RES1               0.0000
      7 C7          20.2480 -11.8060  -2.8353 C.ar           1 RES1               0.0000
      8 N8          18.8069  -9.9030  -5.3773 N.am           1 RES1               0.0000
      9 O9          21.0237  -9.8376  -5.7747 O.2            1 RES1               0.0000
     10 N10         17.8754  -9.1185  -3.3907 N.am           1 RES1               0.0000
     11 O11         19.1076  -8.6787  -1.5626 O.2            1 RES1               0.0000
     12 C12         20.7197  -6.8907  -4.1982 C.3            1 RES1               0.0000
     13 C13         22.7486 -11.6844  -1.6780 C.ar           1 RES1               0.0000
     14 C14         20.7945 -12.9291  -2.2365 C.ar           1 RES1               0.0000
     15 C15         17.6807  -9.5785  -4.6645 C.2            1 RES1               0.0000
     16 C16         22.0441 -12.8693  -1.6572 C.ar           1 RES1               0.0000
     17 O17         16.5642  -9.6969  -5.1610 O.2            1 RES1               0.0000
     18 H18         21.4452  -7.8389  -2.4194 H              1 RES1               0.0000
     19 H19         22.2406  -8.3718  -3.9112 H              1 RES1               0.0000
     20 H20         22.7743  -9.6374  -2.2854 H              1 RES1               0.0000
     21 H21         19.2638 -11.8767  -3.2857 H              1 RES1               0.0000
     22 H22         18.6663 -10.3374  -6.2838 H              1 RES1               0.0000
     23 H23         17.0495  -8.8274  -2.8773 H              1 RES1               0.0000
     24 H24         21.4100  -6.0526  -4.1295 H              1 RES1               0.0000
     25 H25         20.5596  -7.1125  -5.2512 H              1 RES1               0.0000
     26 H26         19.7688  -6.5827  -3.7682 H              1 RES1               0.0000
     27 H27         23.7330 -11.6325  -1.2247 H              1 RES1               0.0000
     28 H28         20.2368 -13.8596  -2.2229 H              1 RES1               0.0000
     29 H29         22.4708 -13.7496  -1.1879 H              1 RES1               0.0000
@<TRIPOS>BOND
    1    1    2 1     
    2    1    3 1     
    3    1    4 1     
    4    1    5 1     
    5    2    6 ar    
    6    2    7 ar    
    7    3    8 1     
    8    3    9 2     
    9    4   10 1     
   10    4   11 2     
   11    5   12 1     
   12    5   18 1     
   13    5   19 1     
   14    6   13 ar    
   15    6   20 1     
   16    7   14 ar    
   17    7   21 1     
   18    8   15 1     
   19    8   22 1     
   20   10   15 1     
   21   10   23 1     
   22   12   24 1     
   23   12   25 1     
   24   12   26 1     
   25   13   16 ar    
   26   13   27 1     
   27   14   16 ar    
   28   14   28 1     
   29   15   17 2     
   30   16   29 1     
@<TRIPOS>SUBSTRUCTURE
      1 RES1           1
@<TRIPOS>SET
DONOR_HYDROGENS      STATIC     ATOMS    <user>   **** ""
2 22 23
ATOM$RED        STATIC     ATOMS    COLORGROUP SYSTEM
2 22 23
@<TRIPOS>COMMENT
> <Gold.Version>
2022.3.0

> <Gold.Id.Protein>
unknown|3owp_clean|pdb

> <Gold.Protein.RotatedTorsions>
[ 3671 3662 3661 3659 ] final -138.26 input   60.00 | X-H torsion
[ 3591 3582 3581 3579 ] final  -79.00 input   60.01 | X-H torsion
[ 3859 3850 3849 3847 ] final   30.57 input   60.02 | X-H torsion
[ 3132 3125 3123 3120 ] final  -53.23 input   60.00 | X-H torsion
[ 5167 5158 5157 5155 ] final   71.97 input   60.02 | X-H torsion
[ 2604 2593 2592 2591 ] final -119.46 input   59.97 | X-H torsion
[  605  600  598  595 ] final   -2.35 input   60.04 | X-H torsion
[ 1932 1928 1927 1924 ] final   23.18 input   59.99 | X-H torsion
[ 3182 3173 3172 3170 ] final  -98.00 input   60.01 | X-H torsion
[  625  620  619  616 ] final   47.40 input   60.02 | X-H torsion

> <Gold.Protein.ActiveResidues>
 LEU49   GLY50   THR51   GLY52   SER53   PHE54   GLY55   VAL79   LEU82   LYS83  
 GLN84   HIS87   THR88   GLY126  GLU127  MET128  PHE129  SER130  HIS131  LEU132 
 ARG133  ARG134  ILE135  GLY136  ARG137  ARG165  ASP166  LEU167  LYS168  PRO169 
 GLU170  ASN171  LEU172  LEU173  ASP184  GLY186  PHE187  TPO197  LEU198  CYS199 
 GLY200  THR201  PRO202  GLU203  TYR204  LEU205  ILE209  ILE210  VAL226  LEU227 
 TYR229  GLU230  ALA233  GLY234  TYR235  PRO236  PRO237  PHE238  PHE239  ALA240 
 ASP241  GLN242  PRO243  ILE244  GLN245  ILE246  TYR247  LYS249  ARG256  PHE257 
 PRO258  SER259  ASN326  PHE327  ASP328  ASP329  TYR330 

> <Gold.Protein.RotatedAtoms>
   20.2820  -12.8668    6.0197 H   0  0  0  0  0  0  0  0  0  0  0  0  # atno 605  bound_to 600 
   17.3418  -12.6821   -2.2368 H   0  0  0  0  0  0  0  0  0  0  0  0  # atno 625  bound_to 620 
   25.6249   -4.5921   11.3887 H   0  0  0  0  0  0  0  0  0  0  0  0  # atno 1932 bound_to 1928
   19.3810   -4.8825    1.4746 H   0  0  0  0  0  0  0  0  0  0  0  0  # atno 2604 bound_to 2593
   18.7127   -3.4356    1.0208 H   0  0  0  0  0  0  0  0  0  0  0  0  # atno 2605 bound_to 2593
   19.3667   -4.4415   -0.1225 H   0  0  0  0  0  0  0  0  0  0  0  0  # atno 2606 bound_to 2593
   17.3575   -3.0332   -0.6850 H   0  0  0  0  0  0  0  0  0  0  0  0  # atno 3132 bound_to 3125
   21.0342    5.3944    3.9548 H   0  0  0  0  0  0  0  0  0  0  0  0  # atno 3182 bound_to 3173
   15.4631   13.5095    7.2874 H   0  0  0  0  0  0  0  0  0  0  0  0  # atno 3591 bound_to 3582
   17.1230   13.8671   12.5268 H   0  0  0  0  0  0  0  0  0  0  0  0  # atno 3671 bound_to 3662
   10.2286   -0.4451   -2.1530 H   0  0  0  0  0  0  0  0  0  0  0  0  # atno 3859 bound_to 3850
   23.5265  -10.4510    8.5777 H   0  0  0  0  0  0  0  0  0  0  0  0  # atno 5167 bound_to 5158
   15.5006   13.7575   12.5973 LP  0  0  0  0  0  0  0  0  0  0  0  0  # atno 5485 bound_to 3662
   16.2387   14.0834   11.1776 LP  0  0  0  0  0  0  0  0  0  0  0  0  # atno 5486 bound_to 3662
   16.2860   14.8935    7.5234 LP  0  0  0  0  0  0  0  0  0  0  0  0  # atno 5493 bound_to 3582
   16.4496   13.6538    8.5736 LP  0  0  0  0  0  0  0  0  0  0  0  0  # atno 5494 bound_to 3582
    9.7225   -0.7412   -3.6711 LP  0  0  0  0  0  0  0  0  0  0  0  0  # atno 5549 bound_to 3850
    8.7651   -1.1123   -2.4013 LP  0  0  0  0  0  0  0  0  0  0  0  0  # atno 5550 bound_to 3850
   18.5945   -2.3502    0.1218 LP  0  0  0  0  0  0  0  0  0  0  0  0  # atno 5553 bound_to 3125
   18.4195   -2.0920   -1.4812 LP  0  0  0  0  0  0  0  0  0  0  0  0  # atno 5554 bound_to 3125
   23.3433  -10.0227   10.1366 LP  0  0  0  0  0  0  0  0  0  0  0  0  # atno 5563 bound_to 5158
   22.0321  -10.2723    9.1958 LP  0  0  0  0  0  0  0  0  0  0  0  0  # atno 5564 bound_to 5158
   20.0020  -13.9724    7.1804 LP  0  0  0  0  0  0  0  0  0  0  0  0  # atno 5571 bound_to 600 
   18.9741  -13.8298    5.9195 LP  0  0  0  0  0  0  0  0  0  0  0  0  # atno 5572 bound_to 600 
   25.7772   -5.4440   12.7664 LP  0  0  0  0  0  0  0  0  0  0  0  0  # atno 5573 bound_to 1928
   26.9752   -5.4591   11.6569 LP  0  0  0  0  0  0  0  0  0  0  0  0  # atno 5574 bound_to 1928
   22.2780    4.4480    3.5006 LP  0  0  0  0  0  0  0  0  0  0  0  0  # atno 5603 bound_to 3173
   21.0346    3.8155    4.3494 LP  0  0  0  0  0  0  0  0  0  0  0  0  # atno 5604 bound_to 3173
   16.8785  -11.4635   -1.2630 LP  0  0  0  0  0  0  0  0  0  0  0  0  # atno 5611 bound_to 620 
   16.0586  -11.7672   -2.6422 LP  0  0  0  0  0  0  0  0  0  0  0  0  # atno 5612 bound_to 620 

> <Gold.Score>
     Fitness  S(hb_ext) S(vdw_ext)  S(hb_int)    S(int)      intcor
     33.43       0.00      25.04       0.00      -1.00      -0.82

> <Gold.Goldscore.Fitness>
33.4313

> <Gold.Goldscore.Internal.Vdw>
-1.4218

> <Gold.Goldscore.Internal.Torsion>
-0.3922

> <Gold.Goldscore.External.Vdw>
25.0399

> <Gold.Goldscore.Internal.HBond>
0.0000

> <Gold.Goldscore.External.HBond>
0.0000

> <Gold.Goldscore.Internal.Correction>
-0.8155

> <Gold.Goldscore.Internal.Vdw.Weighted>
-1.4218

> <Gold.Goldscore.Internal.Torsion.Weighted>
-0.3922

> <Gold.Goldscore.External.Vdw.Weighted>
34.4299

> <Gold.Goldscore.Internal.HBond.Weighted>
0.0000

> <Gold.Goldscore.External.HBond.Weighted>
0.0000

> <Gold.Goldscore.Internal.Correction.Weighted>
-0.8155

> <Gold.Rescore>
     Score     S(PLP)   S(hbond)     S(cho)   S(metal)  DE(clash)   DE(tors)     intcor
     30.36     -30.56       0.00       0.00       0.00       0.00       0.10       ----

> <Gold.PLP.Fitness>
30.3596

> <Gold.PLP.PLP>
-30.5558

> <Gold.PLP.part.hbond>
0.0000

> <Gold.PLP.part.metal>
0.0000

> <Gold.PLP.part.buried>
1.9965

> <Gold.PLP.part.nonpolar>
-32.6576

> <Gold.PLP.part.repulsive>
0.2006

> <Gold.PLP.ligand.clash>
0.0000

> <Gold.PLP.ligand.torsion>
0.0981

> <Gold.PLP.Chemscore.Hbond>
0.0000

> <Gold.PLP.Chemscore.CHOScore>
0.0000

> <Gold.PLP.Chemscore.Metal>
0.0000

> <Gold.PLP.Chemscore.Internal.Correction>
   9.000000E+99

#       Name:                CT1002167954
#       Creating user name   hitesit
#       Creation time:       Sun Apr 16 22:50:28 2023


#       File generated by GOLD software.
#

@<TRIPOS>MOLECULE
CT1002167954|ligand_prepared|mol2|1|dock6
    29    30     1
SMALL
NO_CHARGES


@<TRIPOS>ATOM
      1 C1          23.2558  -9.0273   2.8900 C.3            1 RES1               0.0000
      2 C2          23.2907 -10.3921   2.1725 C.ar           1 RES1               0.0000
      3 C3          23.1112  -7.9723   1.7971 C.2            1 RES1               0.0000
      4 C4          22.0799  -9.0846   3.8588 C.2            1 RES1               0.0000
      5 C5          24.5324  -8.7175   3.7060 C.3            1 RES1               0.0000
      6 C6          23.7052 -11.5368   2.8469 C.ar           1 RES1               0.0000
      7 C7          22.9097 -10.5226   0.8397 C.ar           1 RES1               0.0000
      8 N8          21.8975  -7.3653   1.6616 N.am           1 RES1               0.0000
      9 O9          24.0364  -7.7055   1.0401 O.2            1 RES1               0.0000
     10 N10         21.0186  -8.2484   3.6307 N.am           1 RES1               0.0000
     11 O11         22.0555  -9.8582   4.8082 O.2            1 RES1               0.0000
     12 C12         24.5806  -7.3001   4.2544 C.3            1 RES1               0.0000
     13 C13         23.7348 -12.7678   2.2128 C.ar           1 RES1               0.0000
     14 C14         22.9403 -11.7545   0.2074 C.ar           1 RES1               0.0000
     15 C15         20.8607  -7.4131   2.5584 C.2            1 RES1               0.0000
     16 C16         23.3520 -12.8776   0.8929 C.ar           1 RES1               0.0000
     17 O17         19.8527  -6.7318   2.3941 O.2            1 RES1               0.0000
     18 H18         24.5957  -9.4226   4.5439 H              1 RES1               0.0000
     19 H19         25.4084  -8.8782   3.0656 H              1 RES1               0.0000
     20 H20         24.0124 -11.4694   3.8852 H              1 RES1               0.0000
     21 H21         22.5833  -9.6524   0.2803 H              1 RES1               0.0000
     22 H22         21.7468  -6.8259   0.8150 H              1 RES1               0.0000
     23 H23         20.2777  -8.2484   4.3245 H              1 RES1               0.0000
     24 H24         25.4963  -7.1356   4.8184 H              1 RES1               0.0000
     25 H25         24.5450  -6.5724   3.4463 H              1 RES1               0.0000
     26 H26         23.7370  -7.1135   4.9158 H              1 RES1               0.0000
     27 H27         24.0609 -13.6484   2.7563 H              1 RES1               0.0000
     28 H28         22.6388 -11.8362  -0.8317 H              1 RES1               0.0000
     29 H29         23.3750 -13.8421   0.3965 H              1 RES1               0.0000
@<TRIPOS>BOND
    1    1    2 1     
    2    1    3 1     
    3    1    4 1     
    4    1    5 1     
    5    2    6 ar    
    6    2    7 ar    
    7    3    8 1     
    8    3    9 2     
    9    4   10 1     
   10    4   11 2     
   11    5   12 1     
   12    5   18 1     
   13    5   19 1     
   14    6   13 ar    
   15    6   20 1     
   16    7   14 ar    
   17    7   21 1     
   18    8   15 1     
   19    8   22 1     
   20   10   15 1     
   21   10   23 1     
   22   12   24 1     
   23   12   25 1     
   24   12   26 1     
   25   13   16 ar    
   26   13   27 1     
   27   14   16 ar    
   28   14   28 1     
   29   15   17 2     
   30   16   29 1     
@<TRIPOS>SUBSTRUCTURE
      1 RES1           1
@<TRIPOS>SET
DONOR_HYDROGENS      STATIC     ATOMS    <user>   **** ""
2 22 23
ATOM$RED        STATIC     ATOMS    COLORGROUP SYSTEM
2 22 23
@<TRIPOS>COMMENT
> <Gold.Version>
2022.3.0

> <Gold.Id.Protein>
unknown|3owp_clean|pdb

> <Gold.Protein.RotatedTorsions>
[ 3671 3662 3661 3659 ] final  137.43 input   60.00 | X-H torsion
[ 3591 3582 3581 3579 ] final  -67.00 input   60.01 | X-H torsion
[ 3859 3850 3849 3847 ] final  152.20 input   60.02 | X-H torsion
[ 3132 3125 3123 3120 ] final   80.76 input   60.00 | X-H torsion
[ 5167 5158 5157 5155 ] final  123.35 input   60.02 | X-H torsion
[ 2604 2593 2592 2591 ] final  113.06 input   59.97 | X-H torsion
[  605  600  598  595 ] final   13.40 input   60.04 | X-H torsion
[ 1932 1928 1927 1924 ] final   99.25 input   59.99 | X-H torsion
[ 3182 3173 3172 3170 ] final  120.26 input   60.01 | X-H torsion
[  625  620  619  616 ] final   64.56 input   60.02 | X-H torsion

> <Gold.Protein.ActiveResidues>
 LEU49   GLY50   THR51   GLY52   SER53   PHE54   GLY55   VAL79   LEU82   LYS83  
 GLN84   HIS87   THR88   GLY126  GLU127  MET128  PHE129  SER130  HIS131  LEU132 
 ARG133  ARG134  ILE135  GLY136  ARG137  ARG165  ASP166  LEU167  LYS168  PRO169 
 GLU170  ASN171  LEU172  LEU173  ASP184  GLY186  PHE187  TPO197  LEU198  CYS199 
 GLY200  THR201  PRO202  GLU203  TYR204  LEU205  ILE209  ILE210  VAL226  LEU227 
 TYR229  GLU230  ALA233  GLY234  TYR235  PRO236  PRO237  PHE238  PHE239  ALA240 
 ASP241  GLN242  PRO243  ILE244  GLN245  ILE246  TYR247  LYS249  ARG256  PHE257 
 PRO258  SER259  ASN326  PHE327  ASP328  ASP329  TYR330 

> <Gold.Protein.RotatedAtoms>
   20.1022  -12.8705    5.8367 H   0  0  0  0  0  0  0  0  0  0  0  0  # atno 605  bound_to 600 
   17.1771  -12.7019   -2.4617 H   0  0  0  0  0  0  0  0  0  0  0  0  # atno 625  bound_to 620 
   26.6711   -5.0335   11.1876 H   0  0  0  0  0  0  0  0  0  0  0  0  # atno 1932 bound_to 1928
   19.3144   -4.3308   -0.1488 H   0  0  0  0  0  0  0  0  0  0  0  0  # atno 2604 bound_to 2593
   19.4282   -4.9527    1.3829 H   0  0  0  0  0  0  0  0  0  0  0  0  # atno 2605 bound_to 2593
   18.7175   -3.4756    1.1386 H   0  0  0  0  0  0  0  0  0  0  0  0  # atno 2606 bound_to 2593
   18.5792   -2.0090   -1.3395 H   0  0  0  0  0  0  0  0  0  0  0  0  # atno 3132 bound_to 3125
   22.2130    4.1188    3.6152 H   0  0  0  0  0  0  0  0  0  0  0  0  # atno 3182 bound_to 3173
   15.4958   13.3728    7.4237 H   0  0  0  0  0  0  0  0  0  0  0  0  # atno 3591 bound_to 3582
   15.9507   13.7114   12.9536 H   0  0  0  0  0  0  0  0  0  0  0  0  # atno 3671 bound_to 3662
    8.7620   -1.1129   -2.4288 H   0  0  0  0  0  0  0  0  0  0  0  0  # atno 3859 bound_to 3850
   22.7297  -10.4873    8.4286 H   0  0  0  0  0  0  0  0  0  0  0  0  # atno 5167 bound_to 5158
   15.6999   14.0118   11.3737 LP  0  0  0  0  0  0  0  0  0  0  0  0  # atno 5485 bound_to 3662
   17.2193   13.9858   11.9716 LP  0  0  0  0  0  0  0  0  0  0  0  0  # atno 5486 bound_to 3662
   16.1620   14.8567    7.3746 LP  0  0  0  0  0  0  0  0  0  0  0  0  # atno 5493 bound_to 3582
   16.5407   13.8282    8.5852 LP  0  0  0  0  0  0  0  0  0  0  0  0  # atno 5494 bound_to 3582
   10.2179   -0.4508   -2.1282 LP  0  0  0  0  0  0  0  0  0  0  0  0  # atno 5549 bound_to 3850
    9.7468   -0.7301   -3.6666 LP  0  0  0  0  0  0  0  0  0  0  0  0  # atno 5550 bound_to 3850
   17.3520   -2.9870   -0.9093 LP  0  0  0  0  0  0  0  0  0  0  0  0  # atno 5553 bound_to 3125
   18.4317   -2.4866    0.2090 LP  0  0  0  0  0  0  0  0  0  0  0  0  # atno 5554 bound_to 3125
   23.8785  -10.1879    9.5412 LP  0  0  0  0  0  0  0  0  0  0  0  0  # atno 5563 bound_to 5158
   22.2997  -10.0704    9.9414 LP  0  0  0  0  0  0  0  0  0  0  0  0  # atno 5564 bound_to 5158
   20.1980  -13.8047    7.1656 LP  0  0  0  0  0  0  0  0  0  0  0  0  # atno 5571 bound_to 600 
   18.9591  -13.9937    6.1187 LP  0  0  0  0  0  0  0  0  0  0  0  0  # atno 5572 bound_to 600 
   25.2813   -4.7444   11.9825 LP  0  0  0  0  0  0  0  0  0  0  0  0  # atno 5573 bound_to 1928
   26.4170   -5.7140   12.6434 LP  0  0  0  0  0  0  0  0  0  0  0  0  # atno 5574 bound_to 1928
   20.7978    4.0717    4.4176 LP  0  0  0  0  0  0  0  0  0  0  0  0  # atno 5603 bound_to 3173
   21.3283    5.4757    3.7741 LP  0  0  0  0  0  0  0  0  0  0  0  0  # atno 5604 bound_to 3173
   17.0929  -11.6426   -1.2293 LP  0  0  0  0  0  0  0  0  0  0  0  0  # atno 5611 bound_to 620 
   16.0100  -11.5681   -2.4493 LP  0  0  0  0  0  0  0  0  0  0  0  0  # atno 5612 bound_to 620 

> <Gold.Score>
     Fitness  S(hb_ext) S(vdw_ext)  S(hb_int)    S(int)      intcor
     33.10       5.92      20.71       0.00      -1.30      -0.76

> <Gold.Goldscore.Fitness>
33.0977

> <Gold.Goldscore.Internal.Vdw>
-1.5858

> <Gold.Goldscore.Internal.Torsion>
-0.4721

> <Gold.Goldscore.External.Vdw>
20.7136

> <Gold.Goldscore.Internal.HBond>
0.0000

> <Gold.Goldscore.External.HBond>
5.9160

> <Gold.Goldscore.Internal.Correction>
-0.7585

> <Gold.Goldscore.Hbonds>
donor molecule, donor type, donor heavy atom, donor atom, acceptor molecule, acceptor atom, score
      P1  H  2593  2605       L1    17  0.99

> <Gold.Goldscore.Internal.Vdw.Weighted>
-1.5858

> <Gold.Goldscore.Internal.Torsion.Weighted>
-0.4721

> <Gold.Goldscore.External.Vdw.Weighted>
28.4811

> <Gold.Goldscore.Internal.HBond.Weighted>
0.0000

> <Gold.Goldscore.External.HBond.Weighted>
5.9160

> <Gold.Goldscore.Internal.Correction.Weighted>
-0.7585

> <Gold.Rescore>
     Score     S(PLP)   S(hbond)     S(cho)   S(metal)  DE(clash)   DE(tors)     intcor
     30.72     -31.82       0.38       0.00       0.00       1.31       0.47       ----

> <Gold.PLP.Fitness>
30.7198

> <Gold.PLP.PLP>
-31.8242

> <Gold.PLP.part.hbond>
-1.9281

> <Gold.PLP.part.metal>
0.0000

> <Gold.PLP.part.buried>
-6.6784

> <Gold.PLP.part.nonpolar>
-26.5741

> <Gold.PLP.part.repulsive>
1.3963

> <Gold.PLP.ligand.clash>
1.3122

> <Gold.PLP.ligand.torsion>
0.4721

> <Gold.PLP.Chemscore.Hbond>
0.3840

> <Gold.PLP.Chemscore.CHOScore>
0.0000

> <Gold.PLP.Chemscore.Metal>
0.0000

> <Gold.Chemscore.Hbonds>
donor molecule, donor type, donor heavy atom, donor atom, acceptor molecule, acceptor atom, score
      P1  H  2593  2605       L1    17  1.00

> <Gold.PLP.Chemscore.Internal.Correction>
   9.000000E+99

#       Name:                CT1002167954
#       Creating user name   hitesit
#       Creation time:       Sun Apr 16 22:50:29 2023


#       File generated by GOLD software.
#

@<TRIPOS>MOLECULE
CT1002167954|ligand_prepared|mol2|1|dock7
    29    30     1
SMALL
NO_CHARGES


@<TRIPOS>ATOM
      1 C1          24.1787 -10.2012   1.2951 C.3            1 RES1               0.0000
      2 C2          23.6138 -11.4379   0.5669 C.ar           1 RES1               0.0000
      3 C3          24.1316 -10.5232   2.7859 C.2            1 RES1               0.0000
      4 C4          25.5862  -9.9902   0.7484 C.2            1 RES1               0.0000
      5 C5          23.3705  -8.9064   1.0465 C.3            1 RES1               0.0000
      6 C6          23.6603 -12.6943   1.1637 C.ar           1 RES1               0.0000
      7 C7          23.0417 -11.3379  -0.6985 C.ar           1 RES1               0.0000
      8 N8          25.3117 -10.8036   3.4093 N.am           1 RES1               0.0000
      9 O9          23.0708 -10.5691   3.3965 O.2            1 RES1               0.0000
     10 N10         26.6406 -10.1571   1.6076 N.am           1 RES1               0.0000
     11 O11         25.7926  -9.6971  -0.4229 O.2            1 RES1               0.0000
     12 C12         23.7900  -7.7425   1.9305 C.3            1 RES1               0.0000
     13 C13         23.1508 -13.8098   0.5200 C.ar           1 RES1               0.0000
     14 C14         22.5329 -12.4548  -1.3405 C.ar           1 RES1               0.0000
     15 C15         26.5686 -10.5843   2.9055 C.2            1 RES1               0.0000
     16 C16         22.5864 -13.6908  -0.7321 C.ar           1 RES1               0.0000
     17 O17         27.5659 -10.7630   3.5988 O.2            1 RES1               0.0000
     18 H18         23.4886  -8.6126  -0.0038 H              1 RES1               0.0000
     19 H19         22.3074  -9.1152   1.2187 H              1 RES1               0.0000
     20 H20         24.1029 -12.8078   2.1477 H              1 RES1               0.0000
     21 H21         22.9898 -10.3758  -1.1968 H              1 RES1               0.0000
     22 H22         25.2544 -11.2145   4.3357 H              1 RES1               0.0000
     23 H23         27.5646  -9.9430   1.2462 H              1 RES1               0.0000
     24 H24         23.1917  -6.8596   1.7154 H              1 RES1               0.0000
     25 H25         23.6616  -7.9909   2.9820 H              1 RES1               0.0000
     26 H26         24.8359  -7.4913   1.7668 H              1 RES1               0.0000
     27 H27         23.1965 -14.7805   1.0026 H              1 RES1               0.0000
     28 H28         22.0902 -12.3566  -2.3262 H              1 RES1               0.0000
     29 H29         22.1869 -14.5647  -1.2360 H              1 RES1               0.0000
@<TRIPOS>BOND
    1    1    2 1     
    2    1    3 1     
    3    1    4 1     
    4    1    5 1     
    5    2    6 ar    
    6    2    7 ar    
    7    3    8 1     
    8    3    9 2     
    9    4   10 1     
   10    4   11 2     
   11    5   12 1     
   12    5   18 1     
   13    5   19 1     
   14    6   13 ar    
   15    6   20 1     
   16    7   14 ar    
   17    7   21 1     
   18    8   15 1     
   19    8   22 1     
   20   10   15 1     
   21   10   23 1     
   22   12   24 1     
   23   12   25 1     
   24   12   26 1     
   25   13   16 ar    
   26   13   27 1     
   27   14   16 ar    
   28   14   28 1     
   29   15   17 2     
   30   16   29 1     
@<TRIPOS>SUBSTRUCTURE
      1 RES1           1
@<TRIPOS>SET
DONOR_HYDROGENS      STATIC     ATOMS    <user>   **** ""
2 22 23
ATOM$RED        STATIC     ATOMS    COLORGROUP SYSTEM
2 22 23
@<TRIPOS>COMMENT
> <Gold.Version>
2022.3.0

> <Gold.Id.Protein>
unknown|3owp_clean|pdb

> <Gold.Protein.RotatedTorsions>
[ 3671 3662 3661 3659 ] final   -6.71 input   60.00 | X-H torsion
[ 3591 3582 3581 3579 ] final   -8.48 input   60.01 | X-H torsion
[ 3859 3850 3849 3847 ] final   70.34 input   60.02 | X-H torsion
[ 3132 3125 3123 3120 ] final  117.95 input   60.00 | X-H torsion
[ 5167 5158 5157 5155 ] final  107.70 input   60.02 | X-H torsion
[ 2604 2593 2592 2591 ] final -151.16 input   59.97 | X-H torsion
[  605  600  598  595 ] final    6.48 input   60.04 | X-H torsion
[ 1932 1928 1927 1924 ] final  -53.01 input   59.99 | X-H torsion
[ 3182 3173 3172 3170 ] final  -20.82 input   60.01 | X-H torsion
[  625  620  619  616 ] final  -33.86 input   60.02 | X-H torsion

> <Gold.Protein.ActiveResidues>
 LEU49   GLY50   THR51   GLY52   SER53   PHE54   GLY55   VAL79   LEU82   LYS83  
 GLN84   HIS87   THR88   GLY126  GLU127  MET128  PHE129  SER130  HIS131  LEU132 
 ARG133  ARG134  ILE135  GLY136  ARG137  ARG165  ASP166  LEU167  LYS168  PRO169 
 GLU170  ASN171  LEU172  LEU173  ASP184  GLY186  PHE187  TPO197  LEU198  CYS199 
 GLY200  THR201  PRO202  GLU203  TYR204  LEU205  ILE209  ILE210  VAL226  LEU227 
 TYR229  GLU230  ALA233  GLY234  TYR235  PRO236  PRO237  PHE238  PHE239  ALA240 
 ASP241  GLN242  PRO243  ILE244  GLN245  ILE246  TYR247  LYS249  ARG256  PHE257 
 PRO258  SER259  ASN326  PHE327  ASP328  ASP329  TYR330 

> <Gold.Protein.RotatedAtoms>
   20.1853  -12.8624    5.9129 H   0  0  0  0  0  0  0  0  0  0  0  0  # atno 605  bound_to 600 
   17.3129  -11.9092   -1.2942 H   0  0  0  0  0  0  0  0  0  0  0  0  # atno 625  bound_to 620 
   25.3390   -5.0180   12.4232 H   0  0  0  0  0  0  0  0  0  0  0  0  # atno 1932 bound_to 1928
   19.5454   -5.0936    1.0257 H   0  0  0  0  0  0  0  0  0  0  0  0  # atno 2604 bound_to 2593
   18.7828   -3.6914    1.4711 H   0  0  0  0  0  0  0  0  0  0  0  0  # atno 2605 bound_to 2593
   19.1322   -3.9745   -0.1241 H   0  0  0  0  0  0  0  0  0  0  0  0  # atno 2606 bound_to 2593
   18.8601   -1.9337   -0.8182 H   0  0  0  0  0  0  0  0  0  0  0  0  # atno 3132 bound_to 3125
   20.6602    4.3869    4.4129 H   0  0  0  0  0  0  0  0  0  0  0  0  # atno 3182 bound_to 3173
   15.9535   13.1778    8.1919 H   0  0  0  0  0  0  0  0  0  0  0  0  # atno 3591 bound_to 3582
   16.0533   14.0628   11.2093 H   0  0  0  0  0  0  0  0  0  0  0  0  # atno 3671 bound_to 3662
    9.7257   -0.6551   -1.8232 H   0  0  0  0  0  0  0  0  0  0  0  0  # atno 3859 bound_to 3850
   22.9827  -10.4967    8.3991 H   0  0  0  0  0  0  0  0  0  0  0  0  # atno 5167 bound_to 5158
   17.1966   13.9081   12.3573 LP  0  0  0  0  0  0  0  0  0  0  0  0  # atno 5485 bound_to 3662
   15.6193   13.7358   12.7435 LP  0  0  0  0  0  0  0  0  0  0  0  0  # atno 5486 bound_to 3662
   15.5978   14.2301    7.0027 LP  0  0  0  0  0  0  0  0  0  0  0  0  # atno 5493 bound_to 3582
   16.6440   14.6513    8.1836 LP  0  0  0  0  0  0  0  0  0  0  0  0  # atno 5494 bound_to 3582
   10.2306   -0.5003   -3.3626 LP  0  0  0  0  0  0  0  0  0  0  0  0  # atno 5549 bound_to 3850
    8.7634   -1.1417   -3.0421 LP  0  0  0  0  0  0  0  0  0  0  0  0  # atno 5550 bound_to 3850
   17.5618   -2.7196   -1.4051 LP  0  0  0  0  0  0  0  0  0  0  0  0  # atno 5553 bound_to 3125
   17.9390   -2.8298    0.1799 LP  0  0  0  0  0  0  0  0  0  0  0  0  # atno 5554 bound_to 3125
   23.7780  -10.1253    9.7690 LP  0  0  0  0  0  0  0  0  0  0  0  0  # atno 5563 bound_to 5158
   22.1453  -10.1236    9.7432 LP  0  0  0  0  0  0  0  0  0  0  0  0  # atno 5564 bound_to 5158
   20.1152  -13.8815    7.1796 LP  0  0  0  0  0  0  0  0  0  0  0  0  # atno 5571 bound_to 600 
   18.9583  -13.9251    6.0279 LP  0  0  0  0  0  0  0  0  0  0  0  0  # atno 5572 bound_to 600 
   26.8011   -5.7185   12.2871 LP  0  0  0  0  0  0  0  0  0  0  0  0  # atno 5573 bound_to 1928
   26.2394   -4.7556   11.0938 LP  0  0  0  0  0  0  0  0  0  0  0  0  # atno 5574 bound_to 1928
   21.6315    5.4233    3.6184 LP  0  0  0  0  0  0  0  0  0  0  0  0  # atno 5603 bound_to 3173
   22.0575    3.8542    3.7705 LP  0  0  0  0  0  0  0  0  0  0  0  0  # atno 5604 bound_to 3173
   16.0438  -11.3708   -2.1587 LP  0  0  0  0  0  0  0  0  0  0  0  0  # atno 5611 bound_to 620 
   16.9223  -12.6382   -2.6956 LP  0  0  0  0  0  0  0  0  0  0  0  0  # atno 5612 bound_to 620 

> <Gold.Score>
     Fitness  S(hb_ext) S(vdw_ext)  S(hb_int)    S(int)      intcor
     33.05       0.00      24.71       0.00      -0.93      -0.76

> <Gold.Goldscore.Fitness>
33.0500

> <Gold.Goldscore.Internal.Vdw>
-1.1865

> <Gold.Goldscore.Internal.Torsion>
-0.5033

> <Gold.Goldscore.External.Vdw>
24.7137

> <Gold.Goldscore.Internal.HBond>
0.0000

> <Gold.Goldscore.External.HBond>
0.0000

> <Gold.Goldscore.Internal.Correction>
-0.7585

> <Gold.Goldscore.Internal.Vdw.Weighted>
-1.1865

> <Gold.Goldscore.Internal.Torsion.Weighted>
-0.5033

> <Gold.Goldscore.External.Vdw.Weighted>
33.9813

> <Gold.Goldscore.Internal.HBond.Weighted>
0.0000

> <Gold.Goldscore.External.HBond.Weighted>
0.0000

> <Gold.Goldscore.Internal.Correction.Weighted>
-0.7585

> <Gold.Rescore>
     Score     S(PLP)   S(hbond)     S(cho)   S(metal)  DE(clash)   DE(tors)     intcor
     31.85     -34.28       0.00       0.00       0.00       1.75       0.34       ----

> <Gold.PLP.Fitness>
31.8527

> <Gold.PLP.PLP>
-34.2759

> <Gold.PLP.part.hbond>
-0.9578

> <Gold.PLP.part.metal>
0.0000

> <Gold.PLP.part.buried>
-5.7719

> <Gold.PLP.part.nonpolar>
-30.5954

> <Gold.PLP.part.repulsive>
2.0415

> <Gold.PLP.ligand.clash>
1.7519

> <Gold.PLP.ligand.torsion>
0.3357

> <Gold.PLP.Chemscore.Hbond>
0.0000

> <Gold.PLP.Chemscore.CHOScore>
0.0000

> <Gold.PLP.Chemscore.Metal>
0.0000

> <Gold.PLP.Chemscore.Internal.Correction>
   9.000000E+99

#       Name:                CT1002167954
#       Creating user name   hitesit
#       Creation time:       Sun Apr 16 22:50:27 2023


#       File generated by GOLD software.
#

@<TRIPOS>MOLECULE
CT1002167954|ligand_prepared|mol2|1|dock5
    29    30     1
SMALL
NO_CHARGES


@<TRIPOS>ATOM
      1 C1          23.7876  -9.9122   1.7791 C.3            1 RES1               0.0000
      2 C2          23.4746 -11.1748   0.9504 C.ar           1 RES1               0.0000
      3 C3          22.4406  -9.3107   2.1688 C.2            1 RES1               0.0000
      4 C4          24.6276 -10.3769   2.9637 C.2            1 RES1               0.0000
      5 C5          24.5981  -8.8441   1.0085 C.3            1 RES1               0.0000
      6 C6          23.2754 -11.0887  -0.4243 C.ar           1 RES1               0.0000
      7 C7          23.3847 -12.4306   1.5449 C.ar           1 RES1               0.0000
      8 N8          22.0382  -9.4486   3.4645 N.am           1 RES1               0.0000
      9 O9          21.7244  -8.7584   1.3427 O.2            1 RES1               0.0000
     10 N10         24.0875 -10.2624   4.2179 N.am           1 RES1               0.0000
     11 O11         25.7455 -10.8564   2.8209 O.2            1 RES1               0.0000
     12 C12         25.2374  -7.7951   1.9045 C.3            1 RES1               0.0000
     13 C13         22.9993 -12.2176  -1.1778 C.ar           1 RES1               0.0000
     14 C14         23.1082 -13.5582   0.7895 C.ar           1 RES1               0.0000
     15 C15         22.8189  -9.8479   4.5194 C.2            1 RES1               0.0000
     16 C16         22.9159 -13.4530  -0.5716 C.ar           1 RES1               0.0000
     17 O17         22.3869  -9.8238   5.6683 O.2            1 RES1               0.0000
     18 H18         25.3865  -9.3456   0.4339 H              1 RES1               0.0000
     19 H19         23.9321  -8.3415   0.2962 H              1 RES1               0.0000
     20 H20         23.3347 -10.1247  -0.9184 H              1 RES1               0.0000
     21 H21         23.5312 -12.5371   2.6144 H              1 RES1               0.0000
     22 H22         21.0669  -9.2352   3.6680 H              1 RES1               0.0000
     23 H23         24.6868 -10.5090   4.9991 H              1 RES1               0.0000
     24 H24         25.7937  -7.0704   1.3137 H              1 RES1               0.0000
     25 H25         24.4797  -7.2592   2.4724 H              1 RES1               0.0000
     26 H26         25.9254  -8.2574   2.6093 H              1 RES1               0.0000
     27 H27         22.8474 -12.1292  -2.2485 H              1 RES1               0.0000
     28 H28         23.0429 -14.5283   1.2709 H              1 RES1               0.0000
     29 H29         22.6999 -14.3372  -1.1622 H              1 RES1               0.0000
@<TRIPOS>BOND
    1    1    2 1     
    2    1    3 1     
    3    1    4 1     
    4    1    5 1     
    5    2    6 ar    
    6    2    7 ar    
    7    3    8 1     
    8    3    9 2     
    9    4   10 1     
   10    4   11 2     
   11    5   12 1     
   12    5   18 1     
   13    5   19 1     
   14    6   13 ar    
   15    6   20 1     
   16    7   14 ar    
   17    7   21 1     
   18    8   15 1     
   19    8   22 1     
   20   10   15 1     
   21   10   23 1     
   22   12   24 1     
   23   12   25 1     
   24   12   26 1     
   25   13   16 ar    
   26   13   27 1     
   27   14   16 ar    
   28   14   28 1     
   29   15   17 2     
   30   16   29 1     
@<TRIPOS>SUBSTRUCTURE
      1 RES1           1
@<TRIPOS>SET
DONOR_HYDROGENS      STATIC     ATOMS    <user>   **** ""
2 22 23
ATOM$RED        STATIC     ATOMS    COLORGROUP SYSTEM
2 22 23
@<TRIPOS>COMMENT
> <Gold.Version>
2022.3.0

> <Gold.Id.Protein>
unknown|3owp_clean|pdb

> <Gold.Protein.RotatedTorsions>
[ 3671 3662 3661 3659 ] final   29.61 input   60.00 | X-H torsion
[ 3591 3582 3581 3579 ] final -147.26 input   60.01 | X-H torsion
[ 3859 3850 3849 3847 ] final  -39.59 input   60.02 | X-H torsion
[ 3132 3125 3123 3120 ] final  -71.63 input   60.00 | X-H torsion
[ 5167 5158 5157 5155 ] final  115.36 input   60.02 | X-H torsion
[ 2604 2593 2592 2591 ] final   -8.94 input   59.97 | X-H torsion
[  605  600  598  595 ] final    6.87 input   60.04 | X-H torsion
[ 1932 1928 1927 1924 ] final  -98.24 input   59.99 | X-H torsion
[ 3182 3173 3172 3170 ] final  163.10 input   60.01 | X-H torsion
[  625  620  619  616 ] final   -9.31 input   60.02 | X-H torsion

> <Gold.Protein.ActiveResidues>
 LEU49   GLY50   THR51   GLY52   SER53   PHE54   GLY55   VAL79   LEU82   LYS83  
 GLN84   HIS87   THR88   GLY126  GLU127  MET128  PHE129  SER130  HIS131  LEU132 
 ARG133  ARG134  ILE135  GLY136  ARG137  ARG165  ASP166  LEU167  LYS168  PRO169 
 GLU170  ASN171  LEU172  LEU173  ASP184  GLY186  PHE187  TPO197  LEU198  CYS199 
 GLY200  THR201  PRO202  GLU203  TYR204  LEU205  ILE209  ILE210  VAL226  LEU227 
 TYR229  GLU230  ALA233  GLY234  TYR235  PRO236  PRO237  PHE238  PHE239  ALA240 
 ASP241  GLN242  PRO243  ILE244  GLN245  ILE246  TYR247  LYS249  ARG256  PHE257 
 PRO258  SER259  ASN326  PHE327  ASP328  ASP329  TYR330 

> <Gold.Protein.RotatedAtoms>
   20.1807  -12.8626    5.9084 H   0  0  0  0  0  0  0  0  0  0  0  0  # atno 605  bound_to 600 
   17.4722  -12.2169   -1.4902 H   0  0  0  0  0  0  0  0  0  0  0  0  # atno 625  bound_to 620 
   25.8000   -5.4524   12.7648 H   0  0  0  0  0  0  0  0  0  0  0  0  # atno 1932 bound_to 1928
   18.7201   -3.4889    1.1697 H   0  0  0  0  0  0  0  0  0  0  0  0  # atno 2604 bound_to 2593
   19.3000   -4.3010   -0.1532 H   0  0  0  0  0  0  0  0  0  0  0  0  # atno 2605 bound_to 2593
   19.4400   -4.9694    1.3568 H   0  0  0  0  0  0  0  0  0  0  0  0  # atno 2606 bound_to 2593
   17.4281   -3.0522   -0.3948 H   0  0  0  0  0  0  0  0  0  0  0  0  # atno 3132 bound_to 3125
   22.2156    4.7825    3.4491 H   0  0  0  0  0  0  0  0  0  0  0  0  # atno 3182 bound_to 3173
   15.7557   14.4893    7.0461 H   0  0  0  0  0  0  0  0  0  0  0  0  # atno 3591 bound_to 3582
   15.5633   13.9728   11.5137 H   0  0  0  0  0  0  0  0  0  0  0  0  # atno 3671 bound_to 3662
   10.3119   -0.4558   -3.2258 H   0  0  0  0  0  0  0  0  0  0  0  0  # atno 3859 bound_to 3850
   22.8577  -10.4944    8.4052 H   0  0  0  0  0  0  0  0  0  0  0  0  # atno 5167 bound_to 5158
   17.1681   14.0204   11.7812 LP  0  0  0  0  0  0  0  0  0  0  0  0  # atno 5485 bound_to 3662
   16.1409   13.7141   13.0132 LP  0  0  0  0  0  0  0  0  0  0  0  0  # atno 5486 bound_to 3662
   16.6787   14.4212    8.3847 LP  0  0  0  0  0  0  0  0  0  0  0  0  # atno 5493 bound_to 3582
   15.7622   13.1396    7.9553 LP  0  0  0  0  0  0  0  0  0  0  0  0  # atno 5494 bound_to 3582
    8.8267   -1.1202   -3.1934 LP  0  0  0  0  0  0  0  0  0  0  0  0  # atno 5549 bound_to 3850
    9.5769   -0.7225   -1.7986 LP  0  0  0  0  0  0  0  0  0  0  0  0  # atno 5550 bound_to 3850
   18.7646   -2.1849   -0.0643 LP  0  0  0  0  0  0  0  0  0  0  0  0  # atno 5553 bound_to 3125
   18.1782   -2.2381   -1.5874 LP  0  0  0  0  0  0  0  0  0  0  0  0  # atno 5554 bound_to 3125
   23.8353  -10.1551    9.6607 LP  0  0  0  0  0  0  0  0  0  0  0  0  # atno 5563 bound_to 5158
   22.2139  -10.0961    9.8454 LP  0  0  0  0  0  0  0  0  0  0  0  0  # atno 5564 bound_to 5158
   20.1200  -13.8772    7.1791 LP  0  0  0  0  0  0  0  0  0  0  0  0  # atno 5571 bound_to 600 
   18.9581  -13.9291    6.0329 LP  0  0  0  0  0  0  0  0  0  0  0  0  # atno 5572 bound_to 600 
   26.9727   -5.4467   11.6372 LP  0  0  0  0  0  0  0  0  0  0  0  0  # atno 5573 bound_to 1928
   25.6033   -4.5896   11.3996 LP  0  0  0  0  0  0  0  0  0  0  0  0  # atno 5574 bound_to 1928
   21.3212    3.6670    4.2268 LP  0  0  0  0  0  0  0  0  0  0  0  0  # atno 5603 bound_to 3173
   20.8023    5.2124    4.1322 LP  0  0  0  0  0  0  0  0  0  0  0  0  # atno 5604 bound_to 3173
   16.2036  -11.2498   -1.8116 LP  0  0  0  0  0  0  0  0  0  0  0  0  # atno 5611 bound_to 620 
   16.6021  -12.4494   -2.8454 LP  0  0  0  0  0  0  0  0  0  0  0  0  # atno 5612 bound_to 620 

> <Gold.Score>
     Fitness  S(hb_ext) S(vdw_ext)  S(hb_int)    S(int)      intcor
     32.89       1.00      23.79       0.00      -0.83      -0.76

> <Gold.Goldscore.Fitness>
32.8860

> <Gold.Goldscore.Internal.Vdw>
-0.8266

> <Gold.Goldscore.Internal.Torsion>
-0.7596

> <Gold.Goldscore.External.Vdw>
23.7929

> <Gold.Goldscore.Internal.HBond>
0.0000

> <Gold.Goldscore.External.HBond>
0.9985

> <Gold.Goldscore.Internal.Correction>
-0.7585

> <Gold.Goldscore.Hbonds>
donor molecule, donor type, donor heavy atom, donor atom, acceptor molecule, acceptor atom, score
      P1  H  5158  5167       L1    17  0.44
      P1  H   594   601       L1    17  0.06

> <Gold.Goldscore.Internal.Vdw.Weighted>
-0.8266

> <Gold.Goldscore.Internal.Torsion.Weighted>
-0.7596

> <Gold.Goldscore.External.Vdw.Weighted>
32.7152

> <Gold.Goldscore.Internal.HBond.Weighted>
0.0000

> <Gold.Goldscore.External.HBond.Weighted>
0.9985

> <Gold.Goldscore.Internal.Correction.Weighted>
-0.7585

> <Gold.Rescore>
     Score     S(PLP)   S(hbond)     S(cho)   S(metal)  DE(clash)   DE(tors)     intcor
     33.71     -35.89       0.00       0.00       0.00       1.24       0.47       ----

> <Gold.PLP.Fitness>
33.7122

> <Gold.PLP.PLP>
-35.8886

> <Gold.PLP.part.hbond>
-0.9447

> <Gold.PLP.part.metal>
0.0000

> <Gold.PLP.part.buried>
-4.9445

> <Gold.PLP.part.nonpolar>
-30.6890

> <Gold.PLP.part.repulsive>
0.4336

> <Gold.PLP.ligand.clash>
1.2357

> <Gold.PLP.ligand.torsion>
0.4703

> <Gold.PLP.Chemscore.Hbond>
0.0000

> <Gold.PLP.Chemscore.CHOScore>
0.0000

> <Gold.PLP.Chemscore.Metal>
0.0000

> <Gold.PLP.Chemscore.Internal.Correction>
   9.000000E+99

#       Name:                CT1002167954
#       Creating user name   hitesit
#       Creation time:       Sun Apr 16 22:50:32 2023


#       File generated by GOLD software.
#

@<TRIPOS>MOLECULE
CT1002167954|ligand_prepared|mol2|1|dock9
    29    30     1
SMALL
NO_CHARGES


@<TRIPOS>ATOM
      1 C1          19.6010  -9.1445  -0.4537 C.3            1 RES1               0.0000
      2 C2          20.8680  -9.8861   0.0190 C.ar           1 RES1               0.0000
      3 C3          20.0282  -7.7088  -0.7444 C.2            1 RES1               0.0000
      4 C4          19.0940  -9.9023  -1.6757 C.2            1 RES1               0.0000
      5 C5          18.4655  -9.1161   0.5959 C.3            1 RES1               0.0000
      6 C6          21.2939  -9.7899   1.3404 C.ar           1 RES1               0.0000
      7 C7          21.6185 -10.6708  -0.8526 C.ar           1 RES1               0.0000
      8 N8          20.1261  -7.3310  -2.0512 N.am           1 RES1               0.0000
      9 O9          20.3131  -6.9316   0.1584 O.2            1 RES1               0.0000
     10 N10         19.1204  -9.2601  -2.8860 N.am           1 RES1               0.0000
     11 O11         18.6875 -11.0555  -1.6043 O.2            1 RES1               0.0000
     12 C12         17.1289  -8.6502   0.0406 C.3            1 RES1               0.0000
     13 C13         22.4273 -10.4565   1.7756 C.ar           1 RES1               0.0000
     14 C14         22.7518 -11.3364  -0.4153 C.ar           1 RES1               0.0000
     15 C15         19.6420  -8.0198  -3.1342 C.2            1 RES1               0.0000
     16 C16         23.1567 -11.2304   0.8983 C.ar           1 RES1               0.0000
     17 O17         19.6791  -7.5315  -4.2600 O.2            1 RES1               0.0000
     18 H18         18.3434 -10.1240   1.0112 H              1 RES1               0.0000
     19 H19         18.7591  -8.4490   1.4157 H              1 RES1               0.0000
     20 H20         20.7341  -9.1836   2.0446 H              1 RES1               0.0000
     21 H21         21.3195 -10.7678  -1.8907 H              1 RES1               0.0000
     22 H22         20.6034  -6.4555  -2.2406 H              1 RES1               0.0000
     23 H23         18.7133  -9.7523  -3.6749 H              1 RES1               0.0000
     24 H24         16.3676  -8.6489   0.8179 H              1 RES1               0.0000
     25 H25         17.2075  -7.6409  -0.3583 H              1 RES1               0.0000
     26 H26         16.7942  -9.3061  -0.7604 H              1 RES1               0.0000
     27 H27         22.7426 -10.3688   2.8101 H              1 RES1               0.0000
     28 H28         23.3232 -11.9439  -1.1094 H              1 RES1               0.0000
     29 H29         24.0443 -11.7528   1.2395 H              1 RES1               0.0000
@<TRIPOS>BOND
    1    1    2 1     
    2    1    3 1     
    3    1    4 1     
    4    1    5 1     
    5    2    6 ar    
    6    2    7 ar    
    7    3    8 1     
    8    3    9 2     
    9    4   10 1     
   10    4   11 2     
   11    5   12 1     
   12    5   18 1     
   13    5   19 1     
   14    6   13 ar    
   15    6   20 1     
   16    7   14 ar    
   17    7   21 1     
   18    8   15 1     
   19    8   22 1     
   20   10   15 1     
   21   10   23 1     
   22   12   24 1     
   23   12   25 1     
   24   12   26 1     
   25   13   16 ar    
   26   13   27 1     
   27   14   16 ar    
   28   14   28 1     
   29   15   17 2     
   30   16   29 1     
@<TRIPOS>SUBSTRUCTURE
      1 RES1           1
@<TRIPOS>SET
DONOR_HYDROGENS      STATIC     ATOMS    <user>   **** ""
2 22 23
ATOM$RED        STATIC     ATOMS    COLORGROUP SYSTEM
2 22 23
@<TRIPOS>COMMENT
> <Gold.Version>
2022.3.0

> <Gold.Id.Protein>
unknown|3owp_clean|pdb

> <Gold.Protein.RotatedTorsions>
[ 3671 3662 3661 3659 ] final  -60.63 input   60.00 | X-H torsion
[ 3591 3582 3581 3579 ] final -168.63 input   60.01 | X-H torsion
[ 3859 3850 3849 3847 ] final  -86.15 input   60.02 | X-H torsion
[ 3132 3125 3123 3120 ] final -162.73 input   60.00 | X-H torsion
[ 5167 5158 5157 5155 ] final    5.55 input   60.02 | X-H torsion
[ 2604 2593 2592 2591 ] final  -65.73 input   59.97 | X-H torsion
[  605  600  598  595 ] final  111.15 input   60.04 | X-H torsion
[ 1932 1928 1927 1924 ] final -107.23 input   59.99 | X-H torsion
[ 3182 3173 3172 3170 ] final  -99.97 input   60.01 | X-H torsion
[  625  620  619  616 ] final  100.74 input   60.02 | X-H torsion

> <Gold.Protein.ActiveResidues>
 LEU49   GLY50   THR51   GLY52   SER53   PHE54   GLY55   VAL79   LEU82   LYS83  
 GLN84   HIS87   THR88   GLY126  GLU127  MET128  PHE129  SER130  HIS131  LEU132 
 ARG133  ARG134  ILE135  GLY136  ARG137  ARG165  ASP166  LEU167  LYS168  PRO169 
 GLU170  ASN171  LEU172  LEU173  ASP184  GLY186  PHE187  TPO197  LEU198  CYS199 
 GLY200  THR201  PRO202  GLU203  TYR204  LEU205  ILE209  ILE210  VAL226  LEU227 
 TYR229  GLU230  ALA233  GLY234  TYR235  PRO236  PRO237  PHE238  PHE239  ALA240 
 ASP241  GLN242  PRO243  ILE244  GLN245  ILE246  TYR247  LYS249  ARG256  PHE257 
 PRO258  SER259  ASN326  PHE327  ASP328  ASP329  TYR330 

> <Gold.Protein.RotatedAtoms>
   19.0041  -13.7555    5.8491 H   0  0  0  0  0  0  0  0  0  0  0  0  # atno 605  bound_to 600 
   16.7303  -12.5363   -2.7946 H   0  0  0  0  0  0  0  0  0  0  0  0  # atno 625  bound_to 620 
   25.9267   -5.5256   12.7759 H   0  0  0  0  0  0  0  0  0  0  0  0  # atno 1932 bound_to 1928
   18.9837   -4.1575    1.7276 H   0  0  0  0  0  0  0  0  0  0  0  0  # atno 2604 bound_to 2593
   18.8859   -3.5641    0.1835 H   0  0  0  0  0  0  0  0  0  0  0  0  # atno 2605 bound_to 2593
   19.5906   -5.0380    0.4620 H   0  0  0  0  0  0  0  0  0  0  0  0  # atno 2606 bound_to 2593
   18.4704   -2.4504    0.1864 H   0  0  0  0  0  0  0  0  0  0  0  0  # atno 3132 bound_to 3125
   21.0591    5.4064    3.9380 H   0  0  0  0  0  0  0  0  0  0  0  0  # atno 3182 bound_to 3173
   15.9686   14.7246    7.1872 H   0  0  0  0  0  0  0  0  0  0  0  0  # atno 3591 bound_to 3582
   16.8815   14.0761   11.3969 H   0  0  0  0  0  0  0  0  0  0  0  0  # atno 3671 bound_to 3662
    9.7688   -0.7177   -3.6549 H   0  0  0  0  0  0  0  0  0  0  0  0  # atno 3859 bound_to 3850
   23.8805  -10.1996    9.5063 H   0  0  0  0  0  0  0  0  0  0  0  0  # atno 5167 bound_to 5158
   16.6219   13.7518   12.9706 LP  0  0  0  0  0  0  0  0  0  0  0  0  # atno 5485 bound_to 3662
   15.3604   13.8788   11.9414 LP  0  0  0  0  0  0  0  0  0  0  0  0  # atno 5486 bound_to 3662
   16.6388   14.1086    8.5361 LP  0  0  0  0  0  0  0  0  0  0  0  0  # atno 5493 bound_to 3582
   15.5879   13.2153    7.6618 LP  0  0  0  0  0  0  0  0  0  0  0  0  # atno 5494 bound_to 3582
    8.7496   -1.1215   -2.4522 LP  0  0  0  0  0  0  0  0  0  0  0  0  # atno 5549 bound_to 3850
   10.2011   -0.4574   -2.1077 LP  0  0  0  0  0  0  0  0  0  0  0  0  # atno 5550 bound_to 3850
   18.5452   -2.0262   -1.3828 LP  0  0  0  0  0  0  0  0  0  0  0  0  # atno 5553 bound_to 3125
   17.3481   -3.0029   -0.8542 LP  0  0  0  0  0  0  0  0  0  0  0  0  # atno 5554 bound_to 3125
   22.3256  -10.0639    9.9657 LP  0  0  0  0  0  0  0  0  0  0  0  0  # atno 5563 bound_to 5158
   22.6931  -10.4843    8.4311 LP  0  0  0  0  0  0  0  0  0  0  0  0  # atno 5564 bound_to 5158
   20.3483  -12.8742    6.1030 LP  0  0  0  0  0  0  0  0  0  0  0  0  # atno 5571 bound_to 600 
   19.9148  -14.0330    7.1688 LP  0  0  0  0  0  0  0  0  0  0  0  0  # atno 5572 bound_to 600 
   26.9448   -5.3650   11.5171 LP  0  0  0  0  0  0  0  0  0  0  0  0  # atno 5573 bound_to 1928
   25.5035   -4.5975   11.5084 LP  0  0  0  0  0  0  0  0  0  0  0  0  # atno 5574 bound_to 1928
   22.2775    4.4165    3.5086 LP  0  0  0  0  0  0  0  0  0  0  0  0  # atno 5603 bound_to 3173
   21.0100    3.8349    4.3583 LP  0  0  0  0  0  0  0  0  0  0  0  0  # atno 5604 bound_to 3173
   17.4282  -12.0937   -1.3928 LP  0  0  0  0  0  0  0  0  0  0  0  0  # atno 5611 bound_to 620 
   16.1246  -11.2838   -1.9506 LP  0  0  0  0  0  0  0  0  0  0  0  0  # atno 5612 bound_to 620 

> <Gold.Score>
     Fitness  S(hb_ext) S(vdw_ext)  S(hb_int)    S(int)      intcor
     30.94       9.08      16.51       0.00      -0.85      -0.76

> <Gold.Goldscore.Fitness>
30.9422

> <Gold.Goldscore.Internal.Vdw>
-1.0155

> <Gold.Goldscore.Internal.Torsion>
-0.5898

> <Gold.Goldscore.External.Vdw>
16.5135

> <Gold.Goldscore.Internal.HBond>
0.0000

> <Gold.Goldscore.External.HBond>
9.0829

> <Gold.Goldscore.Internal.Correction>
-0.7585

> <Gold.Goldscore.Hbonds>
donor molecule, donor type, donor heavy atom, donor atom, acceptor molecule, acceptor atom, score
      P1  H  2593  2606       L1     9  1.00
      P1  H   615   624       L1    11  0.10
      L1  H     8    22       P1  2561  0.48

> <Gold.Goldscore.Internal.Vdw.Weighted>
-1.0155

> <Gold.Goldscore.Internal.Torsion.Weighted>
-0.5898

> <Gold.Goldscore.External.Vdw.Weighted>
22.7060

> <Gold.Goldscore.Internal.HBond.Weighted>
0.0000

> <Gold.Goldscore.External.HBond.Weighted>
9.0829

> <Gold.Goldscore.Internal.Correction.Weighted>
-0.7585

> <Gold.Rescore>
     Score     S(PLP)   S(hbond)     S(cho)   S(metal)  DE(clash)   DE(tors)     intcor
     27.09     -23.07       1.87       0.00       0.00       1.16       0.22       ----

> <Gold.PLP.Fitness>
27.0860

> <Gold.PLP.PLP>
-23.0665

> <Gold.PLP.part.hbond>
-3.5981

> <Gold.PLP.part.metal>
0.0000

> <Gold.PLP.part.buried>
-6.1361

> <Gold.PLP.part.nonpolar>
-14.6888

> <Gold.PLP.part.repulsive>
0.3129

> <Gold.PLP.ligand.clash>
1.1580

> <Gold.PLP.ligand.torsion>
0.2178

> <Gold.PLP.Chemscore.Hbond>
1.8710

> <Gold.PLP.Chemscore.CHOScore>
0.0000

> <Gold.PLP.Chemscore.Metal>
0.0000

> <Gold.Chemscore.Hbonds>
donor molecule, donor type, donor heavy atom, donor atom, acceptor molecule, acceptor atom, score
      L1  H     8    22       P1  2561  0.34
      P1  H  2593  2606       L1     9  1.00
      P1  H   615   624       L1    11  1.00

> <Gold.PLP.Chemscore.Internal.Correction>
   9.000000E+99

